<?xml version="1.0" encoding="UTF-8"?>

<!-- generated on 2025-11-26 10:51:20.447881 by Eclipse SUMO randomTrips.py v1_25_0+0000-ac6c5a6752d
<configuration>
    <net-file value="network.net.xml"/>
    <output-trip-file value="car_trips.xml"/>
    <route-file value="car_routes.rou.xml"/>
    <vtype-output value="car"/>
    <prefix value="car_"/>
    <lanes value="True"/>
    <speed-exponent value="1.5"/>
    <fringe-factor value="max"/>
    <edge-permission value="passenger"/>
    <min-distance value="200.0"/>
    <period value="1.0"/>
</configuration>
-->

<!-- generated on 2025-11-26T10:51:20.275228+02:00 by Eclipse SUMO duarouter 1.25.0
<duarouterConfiguration xmlns:xsi="http://www.w3.org/2001/XMLSchema-instance" xsi:noNamespaceSchemaLocation="http://sumo.dlr.de/xsd/duarouterConfiguration.xsd">

    <input>
        <net-file value="network.net.xml"/>
        <route-files value="car_trips.xml"/>
    </input>

    <output>
        <output-file value="car_routes.rou.xml"/>
        <vtype-output value="car"/>
        <alternatives-output value="NUL"/>
    </output>

    <time>
        <begin value="0.0"/>
        <end value="3600.0"/>
    </time>

    <report>
        <no-warnings value="true"/>
        <ignore-errors value="true"/>
        <no-step-log value="true"/>
    </report>

</duarouterConfiguration>
-->

<routes xmlns:xsi="http://www.w3.org/2001/XMLSchema-instance" xsi:noNamespaceSchemaLocation="http://sumo.dlr.de/xsd/routes_file.xsd">
    <vehicle id="car_0" depart="0.00">
        <route edges="E27 TL6_P2_UPSTREAM 7936314#0 411911880 TL7_P2_Upstream TL7_P1P2_Downstream_TL8_P1_Upstream 693785226 TurziiDeal -302113468"/>
    </vehicle>
    <vehicle id="car_1" depart="1.00">
        <route edges="302113468 TL0_P1_Upstream TL0_Downstream TL1_P1_Upstream TL2_P1_Upstream TL3_P1_Upstream TL3_P1P2_DownstreamC_TL4_P1_Upstream TL4_P1P2_Downstream_TL5_P1_Upstream -E17"/>
    </vehicle>
    <vehicle id="car_2" depart="2.00">
        <route edges="TL2_P2_Upstream TL3_P1_Upstream TL3_P1P2_DownstreamC_TL4_P1_Upstream TL4_P0_Upstream"/>
    </vehicle>
    <vehicle id="car_3" depart="3.00">
        <route edges="TL5_P2_Upstream TL5_P1P2_Downstream_TL6_P1_Upstream 7936314#0 411911880 TL7_P2_Upstream TL7_P1P2_Downstream_TL8_P1_Upstream 693785226 TurziiDeal -302113468"/>
    </vehicle>
    <vehicle id="car_4" depart="4.00">
        <route edges="37190757#0 TL4_P1_Upstream TL4_P1P2_Downstream_TL5_P1_Upstream TL5_P1P2_Downstream_TL6_P1_Upstream 7936314#0 411911880 TL7_P2_Upstream TL7_P1P2_Downstream_TL8_P1_Upstream 693785226 TurziiDeal -302113468"/>
    </vehicle>
    <vehicle id="car_5" depart="5.00">
        <route edges="302113468 TL0_P1_Upstream TL0_Downstream TL1_P1_Upstream TL2_P1_Upstream TL3_P1_Upstream TL3_P1P2_Downstream_Doro"/>
    </vehicle>
    <vehicle id="car_6" depart="6.00">
        <route edges="-E24 TL9_P2P3_Upstream E18 TL1_P2_Upstream TL2_P1_Upstream TL2_P0P1_Downstream_TL7_P1_Upstream TL7_P1P2_Downstream_TL8_P1_Upstream 52698705#0 -55488299 -404917415#2"/>
    </vehicle>
    <vehicle id="car_7" depart="7.00">
        <route edges="E27 TL6_P2_UPSTREAM TL6_P1P2_Downstream_TL3_P2_Upstream TL3_P1P2_Downstream_Doro"/>
    </vehicle>
    <vehicle id="car_8" depart="8.00">
        <route edges="302113468 TL0_P1_Upstream TL0_Downstream TL1_P1_Upstream TL2_P1_Upstream TL3_P1_Upstream TL3_P1P2_Downstream_Doro"/>
    </vehicle>
    <vehicle id="car_9" depart="9.00">
        <route edges="TL2_P2_Upstream TL2_P0P1_Downstream_TL7_P1_Upstream TL7_P1P2_Downstream_TL8_P1_Upstream 693785226 TurziiDeal -302113468"/>
    </vehicle>
    <vehicle id="car_10" depart="10.00">
        <route edges="TL2_P2_Upstream TL3_P1_Upstream TL3_P1P2_DownstreamC_TL4_P1_Upstream TL4_P0_Upstream"/>
    </vehicle>
    <vehicle id="car_11" depart="11.00">
        <route edges="37190757#0 TL4_P1_Upstream TL4_P1P2_Downstream_TL5_P1_Upstream TL5_P1P2_Downstream_TL6_P1_Upstream 7936314#0 411911880 TL7_P2_Upstream TL7_P1P2_Downstream_TL8_P1_Upstream 693785226 TurziiDeal -302113468"/>
    </vehicle>
    <vehicle id="car_12" depart="12.00">
        <route edges="TL5_P2_Upstream TL5_P1P2_Downstream_TL6_P1_Upstream 7936314#0 411911880 TL7_P2_Upstream TL7_P1P2_Downstream_TL8_P1_Upstream 693785226 TL0_P2_Upstream_TL8_P1P2_Downstream TL0_Downstream AfterTurziiToGrigo TL9_P1_Upstream TL9_P1_Downstream1 E24"/>
    </vehicle>
    <vehicle id="car_13" depart="13.00">
        <route edges="-E24 TL9_P2P3_Upstream E18 TL1_P2_Upstream TL2_P1_Upstream TL2_P0P1_Downstream_TL7_P1_Upstream TL7_P1P2_Downstream_TL8_P1_Upstream 693785226 TurziiDeal -302113468"/>
    </vehicle>
    <vehicle id="car_14" depart="14.00">
        <route edges="TL5_P2_Upstream TL5_P1P2_Downstream_TL6_P1_Upstream TL6_P1P2_Downstream_TL3_P2_Upstream TL3_P1P2_Downstream_Doro"/>
    </vehicle>
    <vehicle id="car_15" depart="15.00">
        <route edges="TL2_P2_Upstream TL3_P1_Upstream TL3_P1P2_DownstreamC_TL4_P1_Upstream TL4_P0_Upstream"/>
    </vehicle>
    <vehicle id="car_16" depart="16.00">
        <route edges="404917414 55488299 TL8_P2_Upstream TL0_P2_Upstream_TL8_P1P2_Downstream TL0_Downstream TL1_P1_Upstream TL2_P1_Upstream TL3_P1_Upstream TL3_P1P2_DownstreamC_TL4_P1_Upstream TL4_P1P2_Downstream_TL5_P1_Upstream TL5_P1_Upstream"/>
    </vehicle>
    <vehicle id="car_17" depart="17.00">
        <route edges="37190757#0 TL4_P1_Upstream TL4_P1P2_Downstream_TL5_P1_Upstream TL5_P1P2_Downstream_TL6_P1_Upstream TL6_P1P2_Downstream_TL3_P2_Upstream TL3_P1P2_Downstream_Doro"/>
    </vehicle>
    <vehicle id="car_18" depart="18.00">
        <route edges="TL2_P2_Upstream TL3_P1_Upstream TL3_P1P2_Downstream_Doro"/>
    </vehicle>
    <vehicle id="car_19" depart="19.00">
        <route edges="TL5_P2_Upstream TL5_P1P2_Downstream_TL6_P1_Upstream TL6_P1P2_Downstream_TL3_P2_Upstream TL3_P1P2_Downstream_Doro"/>
    </vehicle>
    <vehicle id="car_20" depart="20.00">
        <route edges="E27 TL6_P2_UPSTREAM 7936314#0 411911880 TL7_P2_Upstream TL7_P1P2_Downstream_TL8_P1_Upstream 693785226 TurziiDeal -302113468"/>
    </vehicle>
    <vehicle id="car_21" depart="21.00">
        <route edges="302113468 TL0_P1_Upstream TL0_Downstream AfterTurziiToGrigo TL9_P1_Upstream TL9_P1_Downstream1 E24"/>
    </vehicle>
    <vehicle id="car_22" depart="22.00">
        <route edges="-E24 TL9_P2P3_Upstream E18 TL1_P2_Upstream TL2_P1_Upstream TL3_P1_Upstream TL3_P1P2_DownstreamC_TL4_P1_Upstream TL4_P1P2_Downstream_TL5_P1_Upstream -E17"/>
    </vehicle>
    <vehicle id="car_23" depart="23.00">
        <route edges="-E24 TL9_P2P3_Upstream E18 TL1_P2_Upstream TL2_P1_Upstream TL3_P1_Upstream TL3_P1P2_DownstreamC_TL4_P1_Upstream TL4_P1P2_Downstream_TL5_P1_Upstream -E17"/>
    </vehicle>
    <vehicle id="car_24" depart="24.00">
        <route edges="E27 TL6_P2_UPSTREAM 7936314#0 411911880 TL7_P2_Upstream TL7_P1P2_Downstream_TL8_P1_Upstream 693785226 TL0_P2_Upstream_TL8_P1P2_Downstream TL0_Downstream AfterTurziiToGrigo TL9_P1_Upstream TL9_P1_Downstream1 E24"/>
    </vehicle>
    <vehicle id="car_25" depart="25.00">
        <route edges="37190757#0 TL4_P1_Upstream TL4_P1P2_Downstream_TL5_P1_Upstream TL5_P1P2_Downstream_TL6_P1_Upstream 7936314#0 411911880 TL7_P2_Upstream TL7_P1P2_Downstream_TL8_P1_Upstream 52698705#0 -55488299 -404917415#2"/>
    </vehicle>
    <vehicle id="car_26" depart="26.00">
        <route edges="302113468 TL0_P1_Upstream TL0_Downstream TL1_P1_Upstream TL2_P1_Upstream TL3_P1_Upstream TL3_P1P2_DownstreamC_TL4_P1_Upstream TL4_P1P2_Downstream_TL5_P1_Upstream TL5_P1_Upstream"/>
    </vehicle>
    <vehicle id="car_27" depart="27.00">
        <route edges="E27 TL6_P2_UPSTREAM TL6_P1P2_Downstream_TL3_P2_Upstream TL3_P1P2_Downstream_Doro"/>
    </vehicle>
    <vehicle id="car_28" depart="28.00">
        <route edges="302113468 TL0_P1_Upstream TL0_Downstream TL1_P1_Upstream TL2_P1_Upstream TL3_P1_Upstream TL3_P1P2_DownstreamC_TL4_P1_Upstream TL4_P0_Upstream"/>
    </vehicle>
    <vehicle id="car_29" depart="29.00">
        <route edges="302113468 TL0_P1_Upstream TL0_Downstream AfterTurziiToGrigo TL9_P1_Upstream TL9_P1_Downstream1 E24"/>
    </vehicle>
    <vehicle id="car_30" depart="30.00">
        <route edges="TL5_P2_Upstream TL5_P1P2_Downstream_TL6_P1_Upstream TL6_P1P2_Downstream_TL3_P2_Upstream TL3_P1P2_Downstream_Doro"/>
    </vehicle>
    <vehicle id="car_31" depart="31.00">
        <route edges="404917414 55488299 TL8_P2_Upstream TL0_P2_Upstream_TL8_P1P2_Downstream TL0_Downstream TL1_P1_Upstream TL2_P1_Upstream TL3_P1_Upstream TL3_P1P2_DownstreamC_TL4_P1_Upstream TL4_P0_Upstream"/>
    </vehicle>
    <vehicle id="car_32" depart="32.00">
        <route edges="37190757#0 TL4_P1_Upstream TL4_P1P2_Downstream_TL5_P1_Upstream -E17"/>
    </vehicle>
    <vehicle id="car_33" depart="33.00">
        <route edges="302113468 TL0_P1_Upstream TL0_Downstream TL1_P1_Upstream TL2_P1_Upstream TL3_P1_Upstream TL3_P1P2_DownstreamC_TL4_P1_Upstream TL4_P1P2_Downstream_TL5_P1_Upstream TL5_P1_Upstream"/>
    </vehicle>
    <vehicle id="car_34" depart="34.00">
        <route edges="TL5_P2_Upstream TL5_P1P2_Downstream_TL6_P1_Upstream 7936314#0 411911880 TL7_P2_Upstream TL7_P1P2_Downstream_TL8_P1_Upstream 693785226 TL0_P2_Upstream_TL8_P1P2_Downstream TL0_Downstream AfterTurziiToGrigo TL9_P1_Upstream TL9_P1_Downstream1 E24"/>
    </vehicle>
    <vehicle id="car_35" depart="35.00">
        <route edges="E27 TL6_P2_UPSTREAM 7936314#0 411911880 TL7_P2_Upstream TL7_P1P2_Downstream_TL8_P1_Upstream 693785226 TL0_P2_Upstream_TL8_P1P2_Downstream TL0_Downstream AfterTurziiToGrigo TL9_P1_Upstream TL9_P1_Downstream1 E24"/>
    </vehicle>
    <vehicle id="car_36" depart="36.00">
        <route edges="TL5_P2_Upstream TL5_P1P2_Downstream_TL6_P1_Upstream 7936314#0 411911880 TL7_P2_Upstream TL7_P1P2_Downstream_TL8_P1_Upstream 693785226 TL0_P2_Upstream_TL8_P1P2_Downstream TL0_Downstream AfterTurziiToGrigo TL9_P1_Upstream TL9_P1_Downstream_2 E26"/>
    </vehicle>
    <vehicle id="car_37" depart="37.00">
        <route edges="302113468 TL0_P1_Upstream TL0_Downstream TL1_P1_Upstream TL2_P1_Upstream TL3_P1_Upstream TL3_P1P2_DownstreamC_TL4_P1_Upstream TL4_P1P2_Downstream_TL5_P1_Upstream -E17"/>
    </vehicle>
    <vehicle id="car_38" depart="38.00">
        <route edges="404917414 55488299 TL8_P2_Upstream TL0_P2_Upstream_TL8_P1P2_Downstream TL0_Downstream TL1_P1_Upstream TL2_P1_Upstream TL3_P1_Upstream TL3_P1P2_DownstreamC_TL4_P1_Upstream TL4_P1P2_Downstream_TL5_P1_Upstream -E17"/>
    </vehicle>
    <vehicle id="car_39" depart="39.00">
        <route edges="404917414 55488299 TL8_P2_Upstream TL0_P2_Upstream_TL8_P1P2_Downstream TL0_Downstream TL1_P1_Upstream TL2_P1_Upstream TL3_P1_Upstream TL3_P1P2_DownstreamC_TL4_P1_Upstream TL4_P1P2_Downstream_TL5_P1_Upstream TL5_P1_Upstream"/>
    </vehicle>
    <vehicle id="car_40" depart="40.00">
        <route edges="37190757#0 TL4_P1_Upstream TL4_P1P2_Downstream_TL5_P1_Upstream -E17"/>
    </vehicle>
    <vehicle id="car_41" depart="41.00">
        <route edges="TL5_P2_Upstream TL5_P1P2_Downstream_TL6_P1_Upstream TL6_P1P2_Downstream_TL3_P2_Upstream TL3_P1P2_Downstream_Doro"/>
    </vehicle>
    <vehicle id="car_42" depart="42.00">
        <route edges="-E24 TL9_P2P3_Upstream E18 TL1_P2_Upstream TL2_P1_Upstream TL2_P0P1_Downstream_TL7_P1_Upstream TL7_P1P2_Downstream_TL8_P1_Upstream 693785226 TurziiDeal -302113468"/>
    </vehicle>
    <vehicle id="car_43" depart="43.00">
        <route edges="-E26 TL9_P4_Upstream E18 TL1_P2_Upstream TL2_P1_Upstream TL3_P1_Upstream TL3_P1P2_Downstream_Doro"/>
    </vehicle>
    <vehicle id="car_44" depart="44.00">
        <route edges="TL2_P2_Upstream TL2_P0P1_Downstream_TL7_P1_Upstream TL7_P1P2_Downstream_TL8_P1_Upstream 693785226 TL0_P2_Upstream_TL8_P1P2_Downstream TL0_Downstream AfterTurziiToGrigo TL9_P1_Upstream TL9_P1_Downstream_2 E26"/>
    </vehicle>
    <vehicle id="car_45" depart="45.00">
        <route edges="TL5_P2_Upstream TL5_P1P2_Downstream_TL6_P1_Upstream TL6_P1P2_Downstream_TL3_P2_Upstream TL3_P1P2_Downstream_Doro"/>
    </vehicle>
    <vehicle id="car_46" depart="46.00">
        <route edges="-E24 TL9_P2P3_Upstream E18 TL1_P2_Upstream TL2_P1_Upstream TL3_P1_Upstream TL3_P1P2_DownstreamC_TL4_P1_Upstream TL4_P0_Upstream"/>
    </vehicle>
    <vehicle id="car_47" depart="47.00">
        <route edges="E27 TL6_P2_UPSTREAM TL6_P1P2_Downstream_TL3_P2_Upstream TL3_P1P2_Downstream_Doro"/>
    </vehicle>
    <vehicle id="car_48" depart="48.00">
        <route edges="302113468 TL0_P1_Upstream TL0_Downstream TL1_P1_Upstream TL2_P1_Upstream TL3_P1_Upstream TL3_P1P2_Downstream_Doro"/>
    </vehicle>
    <vehicle id="car_49" depart="49.00">
        <route edges="37190757#0 TL4_P1_Upstream TL4_P1P2_Downstream_TL5_P1_Upstream TL5_P1_Upstream"/>
    </vehicle>
    <vehicle id="car_50" depart="50.00">
        <route edges="37190757#0 TL4_P1_Upstream TL4_P1P2_Downstream_TL5_P1_Upstream TL5_P1P2_Downstream_TL6_P1_Upstream 7936314#0 411911880 TL7_P2_Upstream TL7_P1P2_Downstream_TL8_P1_Upstream 52698705#0 -55488299 -404917415#2"/>
    </vehicle>
    <vehicle id="car_51" depart="51.00">
        <route edges="302113468 TL0_P1_Upstream TL0_Downstream TL1_P1_Upstream TL2_P1_Upstream TL3_P1_Upstream TL3_P1P2_Downstream_Doro"/>
    </vehicle>
    <vehicle id="car_52" depart="52.00">
        <route edges="404917414 55488299 TL8_P2_Upstream TurziiDeal -302113468"/>
    </vehicle>
    <vehicle id="car_53" depart="53.00">
        <route edges="TL2_P2_Upstream TL3_P1_Upstream TL3_P1P2_Downstream_Doro"/>
    </vehicle>
    <vehicle id="car_54" depart="54.00">
        <route edges="TL2_P2_Upstream TL3_P1_Upstream TL3_P1P2_Downstream_Doro"/>
    </vehicle>
    <vehicle id="car_55" depart="55.00">
        <route edges="-E24 TL9_P2P3_Upstream E18 TL1_P2_Upstream TL2_P1_Upstream TL3_P1_Upstream TL3_P1P2_DownstreamC_TL4_P1_Upstream TL4_P1P2_Downstream_TL5_P1_Upstream TL5_P1_Upstream"/>
    </vehicle>
    <vehicle id="car_56" depart="56.00">
        <route edges="37190757#0 TL4_P1_Upstream TL4_P1P2_Downstream_TL5_P1_Upstream TL5_P1P2_Downstream_TL6_P1_Upstream 7936314#0 411911880 TL7_P2_Upstream TL7_P1P2_Downstream_TL8_P1_Upstream 693785226 TurziiDeal -302113468"/>
    </vehicle>
    <vehicle id="car_57" depart="57.00">
        <route edges="-E24 TL9_P2P3_Upstream E18 TL1_P2_Upstream TL2_P1_Upstream TL3_P1_Upstream TL3_P1P2_Downstream_Doro"/>
    </vehicle>
    <vehicle id="car_58" depart="58.00">
        <route edges="-E24 TL9_P2P3_Upstream E18 TL1_P2_Upstream TL2_P1_Upstream TL3_P1_Upstream TL3_P1P2_DownstreamC_TL4_P1_Upstream TL4_P0_Upstream"/>
    </vehicle>
    <vehicle id="car_59" depart="59.00">
        <route edges="TL2_P2_Upstream TL2_P0P1_Downstream_TL7_P1_Upstream TL7_P1P2_Downstream_TL8_P1_Upstream 693785226 TurziiDeal -302113468"/>
    </vehicle>
    <vehicle id="car_60" depart="60.00">
        <route edges="37190757#0 TL4_P1_Upstream TL4_P1P2_Downstream_TL5_P1_Upstream TL5_P1P2_Downstream_TL6_P1_Upstream TL6_P1P2_Downstream_TL3_P2_Upstream TL3_P1P2_Downstream_Doro"/>
    </vehicle>
    <vehicle id="car_61" depart="61.00">
        <route edges="302113468 TL0_P1_Upstream TL0_Downstream TL1_P1_Upstream TL2_P1_Upstream TL3_P1_Upstream TL3_P1P2_DownstreamC_TL4_P1_Upstream TL4_P1P2_Downstream_TL5_P1_Upstream TL5_P1_Upstream"/>
    </vehicle>
    <vehicle id="car_62" depart="62.00">
        <route edges="37190757#0 TL4_P1_Upstream TL4_P1P2_Downstream_TL5_P1_Upstream TL5_P1P2_Downstream_TL6_P1_Upstream 7936314#0 411911880 TL7_P2_Upstream TL7_P1P2_Downstream_TL8_P1_Upstream 52698705#0 -55488299 -404917415#2"/>
    </vehicle>
    <vehicle id="car_63" depart="63.00">
        <route edges="404917414 55488299 TL8_P2_Upstream TL0_P2_Upstream_TL8_P1P2_Downstream TL0_Downstream TL1_P1_Upstream TL2_P1_Upstream TL3_P1_Upstream TL3_P1P2_DownstreamC_TL4_P1_Upstream TL4_P0_Upstream"/>
    </vehicle>
    <vehicle id="car_64" depart="64.00">
        <route edges="302113468 TL0_P1_Upstream TL0_Downstream AfterTurziiToGrigo TL9_P1_Upstream TL9_P1_Downstream1 E24"/>
    </vehicle>
    <vehicle id="car_65" depart="65.00">
        <route edges="37190757#0 TL4_P1_Upstream TL4_P1P2_Downstream_TL5_P1_Upstream TL5_P1P2_Downstream_TL6_P1_Upstream TL6_P1P2_Downstream_TL3_P2_Upstream TL3_P1P2_Downstream_Doro"/>
    </vehicle>
    <vehicle id="car_66" depart="66.00">
        <route edges="-E26 TL9_P4_Upstream E18 TL1_P2_Upstream TL2_P1_Upstream TL3_P1_Upstream TL3_P1P2_DownstreamC_TL4_P1_Upstream TL4_P1P2_Downstream_TL5_P1_Upstream -E17"/>
    </vehicle>
    <vehicle id="car_67" depart="67.00">
        <route edges="37190757#0 TL4_P1_Upstream TL4_P1P2_Downstream_TL5_P1_Upstream TL5_P1P2_Downstream_TL6_P1_Upstream TL6_P1P2_Downstream_TL3_P2_Upstream TL3_P1P2_Downstream_Doro"/>
    </vehicle>
    <vehicle id="car_68" depart="68.00">
        <route edges="302113468 TL0_P1_Upstream TL0_Downstream TL1_P1_Upstream TL2_P1_Upstream TL3_P1_Upstream TL3_P1P2_DownstreamC_TL4_P1_Upstream TL4_P1P2_Downstream_TL5_P1_Upstream -E17"/>
    </vehicle>
    <vehicle id="car_69" depart="69.00">
        <route edges="-E24 TL9_P2P3_Upstream E18 TL1_P2_Upstream TL2_P1_Upstream TL3_P1_Upstream TL3_P1P2_Downstream_Doro"/>
    </vehicle>
    <vehicle id="car_70" depart="70.00">
        <route edges="302113468 TL0_P1_Upstream TL0_Downstream TL1_P1_Upstream TL2_P1_Upstream TL3_P1_Upstream TL3_P1P2_DownstreamC_TL4_P1_Upstream TL4_P1P2_Downstream_TL5_P1_Upstream TL5_P1_Upstream"/>
    </vehicle>
    <vehicle id="car_71" depart="71.00">
        <route edges="TL5_P2_Upstream TL5_P1P2_Downstream_TL6_P1_Upstream 7936314#0 411911880 TL7_P2_Upstream TL7_P1P2_Downstream_TL8_P1_Upstream 693785226 TurziiDeal -302113468"/>
    </vehicle>
    <vehicle id="car_72" depart="72.00">
        <route edges="302113468 TL0_P1_Upstream TL0_Downstream TL1_P1_Upstream TL2_P1_Upstream TL3_P1_Upstream TL3_P1P2_DownstreamC_TL4_P1_Upstream TL4_P0_Upstream"/>
    </vehicle>
    <vehicle id="car_73" depart="73.00">
        <route edges="TL5_P2_Upstream TL5_P1P2_Downstream_TL6_P1_Upstream TL6_P1P2_Downstream_TL3_P2_Upstream TL3_P1P2_Downstream_Doro"/>
    </vehicle>
    <vehicle id="car_74" depart="74.00">
        <route edges="37190757#0 TL4_P1_Upstream TL4_P1P2_Downstream_TL5_P1_Upstream TL5_P1_Upstream"/>
    </vehicle>
    <vehicle id="car_75" depart="75.00">
        <route edges="TL2_P2_Upstream TL2_P0P1_Downstream_TL7_P1_Upstream TL7_P1P2_Downstream_TL8_P1_Upstream 52698705#0 -55488299 -404917415#2"/>
    </vehicle>
    <vehicle id="car_76" depart="76.00">
        <route edges="37190757#0 TL4_P1_Upstream TL4_P1P2_Downstream_TL5_P1_Upstream TL5_P1P2_Downstream_TL6_P1_Upstream TL6_P1P2_Downstream_TL3_P2_Upstream TL3_P1P2_Downstream_Doro"/>
    </vehicle>
    <vehicle id="car_77" depart="77.00">
        <route edges="E27 TL6_P2_UPSTREAM TL6_P1P2_Downstream_TL3_P2_Upstream TL3_P1P2_DownstreamC_TL4_P1_Upstream TL4_P0_Upstream"/>
    </vehicle>
    <vehicle id="car_78" depart="78.00">
        <route edges="TL5_P2_Upstream TL5_P1P2_Downstream_TL6_P1_Upstream 7936314#0 411911880 TL7_P2_Upstream TL7_P1P2_Downstream_TL8_P1_Upstream 693785226 TurziiDeal -302113468"/>
    </vehicle>
    <vehicle id="car_79" depart="79.00">
        <route edges="37190757#0 TL4_P1_Upstream TL4_P1P2_Downstream_TL5_P1_Upstream TL5_P1P2_Downstream_TL6_P1_Upstream 7936314#0 411911880 TL7_P2_Upstream TL7_P1P2_Downstream_TL8_P1_Upstream 693785226 TL0_P2_Upstream_TL8_P1P2_Downstream TL0_Downstream AfterTurziiToGrigo TL9_P1_Upstream TL9_P1_Downstream1 E24"/>
    </vehicle>
    <vehicle id="car_80" depart="80.00">
        <route edges="302113468 TL0_P1_Upstream TL0_Downstream AfterTurziiToGrigo TL9_P1_Upstream TL9_P1_Downstream_2 E26"/>
    </vehicle>
    <vehicle id="car_81" depart="81.00">
        <route edges="37190757#0 TL4_P1_Upstream TL4_P1P2_Downstream_TL5_P1_Upstream -E17"/>
    </vehicle>
    <vehicle id="car_82" depart="82.00">
        <route edges="302113468 TL0_P1_Upstream TL0_Downstream TL1_P1_Upstream TL2_P1_Upstream TL3_P1_Upstream TL3_P1P2_DownstreamC_TL4_P1_Upstream TL4_P1P2_Downstream_TL5_P1_Upstream TL5_P1_Upstream"/>
    </vehicle>
    <vehicle id="car_83" depart="83.00">
        <route edges="37190757#0 TL4_P1_Upstream TL4_P1P2_Downstream_TL5_P1_Upstream TL5_P1_Upstream"/>
    </vehicle>
    <vehicle id="car_84" depart="84.00">
        <route edges="404917414 55488299 TL8_P2_Upstream TurziiDeal -302113468"/>
    </vehicle>
    <vehicle id="car_85" depart="85.00">
        <route edges="TL5_P2_Upstream TL5_P1P2_Downstream_TL6_P1_Upstream 7936314#0 411911880 TL7_P2_Upstream TL7_P1P2_Downstream_TL8_P1_Upstream 52698705#0 -55488299 -404917415#2"/>
    </vehicle>
    <vehicle id="car_86" depart="86.00">
        <route edges="37190757#0 TL4_P1_Upstream TL4_P1P2_Downstream_TL5_P1_Upstream TL5_P1P2_Downstream_TL6_P1_Upstream 7936314#0 411911880 TL7_P2_Upstream TL7_P1P2_Downstream_TL8_P1_Upstream 52698705#0 -55488299 -404917415#2"/>
    </vehicle>
    <vehicle id="car_87" depart="87.00">
        <route edges="37190757#0 TL4_P1_Upstream TL4_P1P2_Downstream_TL5_P1_Upstream TL5_P1P2_Downstream_TL6_P1_Upstream 7936314#0 411911880 TL7_P2_Upstream TL7_P1P2_Downstream_TL8_P1_Upstream 693785226 TurziiDeal -302113468"/>
    </vehicle>
    <vehicle id="car_88" depart="88.00">
        <route edges="37190757#0 TL4_P1_Upstream TL4_P1P2_Downstream_TL5_P1_Upstream TL5_P1_Upstream"/>
    </vehicle>
    <vehicle id="car_89" depart="89.00">
        <route edges="302113468 TL0_P1_Upstream TL0_Downstream TL1_P1_Upstream TL2_P1_Upstream TL3_P1_Upstream TL3_P1P2_DownstreamC_TL4_P1_Upstream TL4_P1P2_Downstream_TL5_P1_Upstream TL5_P1_Upstream"/>
    </vehicle>
    <vehicle id="car_90" depart="90.00">
        <route edges="37190757#0 TL4_P1_Upstream TL4_P1P2_Downstream_TL5_P1_Upstream TL5_P1P2_Downstream_TL6_P1_Upstream 7936314#0 411911880 TL7_P2_Upstream TL7_P1P2_Downstream_TL8_P1_Upstream 693785226 TL0_P2_Upstream_TL8_P1P2_Downstream TL0_Downstream AfterTurziiToGrigo TL9_P1_Upstream TL9_P1_Downstream_2 E26"/>
    </vehicle>
    <vehicle id="car_91" depart="91.00">
        <route edges="404917414 55488299 TL8_P2_Upstream TL0_P2_Upstream_TL8_P1P2_Downstream TL0_Downstream TL1_P1_Upstream TL2_P1_Upstream TL3_P1_Upstream TL3_P1P2_DownstreamC_TL4_P1_Upstream TL4_P0_Upstream"/>
    </vehicle>
    <vehicle id="car_92" depart="92.00">
        <route edges="TL5_P2_Upstream TL5_P1P2_Downstream_TL6_P1_Upstream TL6_P1P2_Downstream_TL3_P2_Upstream TL3_P1P2_Downstream_Doro"/>
    </vehicle>
    <vehicle id="car_93" depart="93.00">
        <route edges="404917414 55488299 TL8_P2_Upstream TL0_P2_Upstream_TL8_P1P2_Downstream TL0_Downstream TL1_P1_Upstream TL2_P1_Upstream TL3_P1_Upstream TL3_P1P2_DownstreamC_TL4_P1_Upstream TL4_P0_Upstream"/>
    </vehicle>
    <vehicle id="car_94" depart="94.00">
        <route edges="-E24 TL9_P2P3_Upstream E18 TL1_P2_Upstream TL2_P1_Upstream TL3_P1_Upstream TL3_P1P2_Downstream_Doro"/>
    </vehicle>
    <vehicle id="car_95" depart="95.00">
        <route edges="37190757#0 TL4_P1_Upstream TL4_P1P2_Downstream_TL5_P1_Upstream TL5_P1_Upstream"/>
    </vehicle>
    <vehicle id="car_96" depart="96.00">
        <route edges="-E26 TL9_P4_Upstream E18 TL1_P2_Upstream TL2_P1_Upstream TL3_P1_Upstream TL3_P1P2_DownstreamC_TL4_P1_Upstream TL4_P1P2_Downstream_TL5_P1_Upstream TL5_P1_Upstream"/>
    </vehicle>
    <vehicle id="car_97" depart="97.00">
        <route edges="-E24 TL9_P2P3_Upstream E18 TL1_P2_Upstream TL2_P1_Upstream TL2_P0P1_Downstream_TL7_P1_Upstream TL7_P1P2_Downstream_TL8_P1_Upstream 52698705#0 -55488299 -404917415#2"/>
    </vehicle>
    <vehicle id="car_98" depart="98.00">
        <route edges="404917414 55488299 TL8_P2_Upstream TL0_P2_Upstream_TL8_P1P2_Downstream TL0_Downstream TL1_P1_Upstream TL2_P1_Upstream TL3_P1_Upstream TL3_P1P2_DownstreamC_TL4_P1_Upstream TL4_P0_Upstream"/>
    </vehicle>
    <vehicle id="car_99" depart="99.00">
        <route edges="404917414 55488299 TL8_P2_Upstream TL0_P2_Upstream_TL8_P1P2_Downstream TL0_Downstream TL1_P1_Upstream TL2_P1_Upstream TL3_P1_Upstream TL3_P1P2_Downstream_Doro"/>
    </vehicle>
    <vehicle id="car_100" depart="100.00">
        <route edges="37190757#0 TL4_P1_Upstream TL4_P1P2_Downstream_TL5_P1_Upstream TL5_P1P2_Downstream_TL6_P1_Upstream TL6_P1P2_Downstream_TL3_P2_Upstream TL3_P1P2_Downstream_Doro"/>
    </vehicle>
    <vehicle id="car_101" depart="101.00">
        <route edges="404917414 55488299 TL8_P2_Upstream TL0_P2_Upstream_TL8_P1P2_Downstream TL0_Downstream TL1_P1_Upstream TL2_P1_Upstream TL3_P1_Upstream TL3_P1P2_DownstreamC_TL4_P1_Upstream TL4_P1P2_Downstream_TL5_P1_Upstream TL5_P1_Upstream"/>
    </vehicle>
    <vehicle id="car_102" depart="102.00">
        <route edges="302113468 TL0_P1_Upstream TL0_Downstream TL1_P1_Upstream TL2_P1_Upstream TL3_P1_Upstream TL3_P1P2_DownstreamC_TL4_P1_Upstream TL4_P0_Upstream"/>
    </vehicle>
    <vehicle id="car_103" depart="103.00">
        <route edges="302113468 TL0_P1_Upstream TL0_Downstream AfterTurziiToGrigo TL9_P1_Upstream TL9_P1_Downstream1 E24"/>
    </vehicle>
    <vehicle id="car_104" depart="104.00">
        <route edges="E27 TL6_P2_UPSTREAM 7936314#0 411911880 TL7_P2_Upstream TL7_P1P2_Downstream_TL8_P1_Upstream 693785226 TL0_P2_Upstream_TL8_P1P2_Downstream TL0_Downstream AfterTurziiToGrigo TL9_P1_Upstream TL9_P1_Downstream1 E24"/>
    </vehicle>
    <vehicle id="car_105" depart="105.00">
        <route edges="37190757#0 TL4_P1_Upstream TL4_P0_Upstream"/>
    </vehicle>
    <vehicle id="car_106" depart="106.00">
        <route edges="-E24 TL9_P2P3_Upstream E18 TL1_P2_Upstream TL2_P1_Upstream TL2_P0P1_Downstream_TL7_P1_Upstream TL7_P1P2_Downstream_TL8_P1_Upstream 52698705#0 -55488299 -404917415#2"/>
    </vehicle>
    <vehicle id="car_107" depart="107.00">
        <route edges="302113468 TL0_P1_Upstream TL0_Downstream TL1_P1_Upstream TL2_P1_Upstream TL3_P1_Upstream TL3_P1P2_DownstreamC_TL4_P1_Upstream TL4_P1P2_Downstream_TL5_P1_Upstream TL5_P1_Upstream"/>
    </vehicle>
    <vehicle id="car_108" depart="108.00">
        <route edges="37190757#0 TL4_P1_Upstream TL4_P1P2_Downstream_TL5_P1_Upstream TL5_P1P2_Downstream_TL6_P1_Upstream 7936314#0 411911880 TL7_P2_Upstream TL7_P1P2_Downstream_TL8_P1_Upstream 693785226 TurziiDeal -302113468"/>
    </vehicle>
    <vehicle id="car_109" depart="109.00">
        <route edges="TL2_P2_Upstream TL3_P1_Upstream TL3_P1P2_DownstreamC_TL4_P1_Upstream TL4_P0_Upstream"/>
    </vehicle>
    <vehicle id="car_110" depart="110.00">
        <route edges="404917414 55488299 TL8_P2_Upstream TL0_P2_Upstream_TL8_P1P2_Downstream TL0_Downstream TL1_P1_Upstream TL2_P1_Upstream TL3_P1_Upstream TL3_P1P2_DownstreamC_TL4_P1_Upstream TL4_P1P2_Downstream_TL5_P1_Upstream TL5_P1_Upstream"/>
    </vehicle>
    <vehicle id="car_111" depart="111.00">
        <route edges="E27 TL6_P2_UPSTREAM 7936314#0 411911880 TL7_P2_Upstream TL7_P1P2_Downstream_TL8_P1_Upstream 693785226 TurziiDeal -302113468"/>
    </vehicle>
    <vehicle id="car_112" depart="112.00">
        <route edges="TL2_P2_Upstream TL2_P0P1_Downstream_TL7_P1_Upstream TL7_P1P2_Downstream_TL8_P1_Upstream 693785226 TL0_P2_Upstream_TL8_P1P2_Downstream TL0_Downstream AfterTurziiToGrigo TL9_P1_Upstream TL9_P1_Downstream1 E24"/>
    </vehicle>
    <vehicle id="car_113" depart="113.00">
        <route edges="E27 TL6_P2_UPSTREAM TL6_P1P2_Downstream_TL3_P2_Upstream TL3_P1P2_DownstreamC_TL4_P1_Upstream TL4_P1P2_Downstream_TL5_P1_Upstream TL5_P1_Upstream"/>
    </vehicle>
    <vehicle id="car_114" depart="114.00">
        <route edges="-E26 TL9_P4_Upstream E18 TL1_P2_Upstream TL2_P1_Upstream TL2_P0P1_Downstream_TL7_P1_Upstream TL7_P1P2_Downstream_TL8_P1_Upstream 693785226 TurziiDeal -302113468"/>
    </vehicle>
    <vehicle id="car_115" depart="115.00">
        <route edges="-E24 TL9_P2P3_Upstream E18 TL1_P2_Upstream TL2_P1_Upstream TL3_P1_Upstream TL3_P1P2_Downstream_Doro"/>
    </vehicle>
    <vehicle id="car_116" depart="116.00">
        <route edges="302113468 TL0_P1_Upstream TL0_Downstream TL1_P1_Upstream TL2_P1_Upstream TL3_P1_Upstream TL3_P1P2_Downstream_Doro"/>
    </vehicle>
    <vehicle id="car_117" depart="117.00">
        <route edges="E27 TL6_P2_UPSTREAM 7936314#0 411911880 TL7_P2_Upstream TL7_P1P2_Downstream_TL8_P1_Upstream 52698705#0 -55488299 -404917415#2"/>
    </vehicle>
    <vehicle id="car_118" depart="118.00">
        <route edges="E27 TL6_P2_UPSTREAM TL6_P1P2_Downstream_TL3_P2_Upstream TL3_P1P2_DownstreamC_TL4_P1_Upstream TL4_P1P2_Downstream_TL5_P1_Upstream -E17"/>
    </vehicle>
    <vehicle id="car_119" depart="119.00">
        <route edges="37190757#0 TL4_P1_Upstream TL4_P1P2_Downstream_TL5_P1_Upstream TL5_P1_Upstream"/>
    </vehicle>
    <vehicle id="car_120" depart="120.00">
        <route edges="TL5_P2_Upstream TL5_P1P2_Downstream_TL6_P1_Upstream 7936314#0 411911880 TL7_P2_Upstream TL7_P1P2_Downstream_TL8_P1_Upstream 693785226 TurziiDeal -302113468"/>
    </vehicle>
    <vehicle id="car_121" depart="121.00">
        <route edges="37190757#0 TL4_P1_Upstream TL4_P1P2_Downstream_TL5_P1_Upstream -E17"/>
    </vehicle>
    <vehicle id="car_122" depart="122.00">
        <route edges="-E24 TL9_P2P3_Upstream E18 TL1_P2_Upstream TL2_P1_Upstream TL3_P1_Upstream TL3_P1P2_DownstreamC_TL4_P1_Upstream TL4_P1P2_Downstream_TL5_P1_Upstream TL5_P1_Upstream"/>
    </vehicle>
    <vehicle id="car_123" depart="123.00">
        <route edges="E27 TL6_P2_UPSTREAM TL6_P1P2_Downstream_TL3_P2_Upstream TL3_P1P2_DownstreamC_TL4_P1_Upstream TL4_P1P2_Downstream_TL5_P1_Upstream -E17"/>
    </vehicle>
    <vehicle id="car_124" depart="124.00">
        <route edges="TL2_P2_Upstream TL3_P1_Upstream TL3_P1P2_Downstream_Doro"/>
    </vehicle>
    <vehicle id="car_125" depart="125.00">
        <route edges="37190757#0 TL4_P1_Upstream TL4_P1P2_Downstream_TL5_P1_Upstream TL5_P1P2_Downstream_TL6_P1_Upstream 7936314#0 411911880 TL7_P2_Upstream TL7_P1P2_Downstream_TL8_P1_Upstream 693785226 TurziiDeal -302113468"/>
    </vehicle>
    <vehicle id="car_126" depart="126.00">