<?xml version="1.0" encoding="UTF-8"?>

<!-- generated on 2025-11-25 21:02:26.888185 by Eclipse SUMO randomTrips.py v1_25_0+0000-ac6c5a6752d
<configuration>
    <net-file value="network.net.xml"/>
    <output-trip-file value="bus_trips.xml"/>
    <route-file value="bus_routes.rou.xml"/>
    <vtype-output value="bus"/>
    <prefix value="bus_"/>
    <lanes value="True"/>
    <speed-exponent value="1.5"/>
    <fringe-factor value="max"/>
    <edge-permission value="bus"/>
    <seed value="43"/>
    <min-distance value="200.0"/>
    <period value="5.0"/>
</configuration>
-->

<routes xmlns:xsi="http://www.w3.org/2001/XMLSchema-instance" xsi:noNamespaceSchemaLocation="http://sumo.dlr.de/xsd/routes_file.xsd">
    <trip id="bus_0" depart="0.00" from="-E24" to="10511797#0"/>
    <trip id="bus_1" depart="5.00" from="E0" to="E24"/>
    <trip id="bus_2" depart="10.00" from="37190757#0" to="10511797#0"/>
    <trip id="bus_3" depart="15.00" from="37190757#0" to="E24"/>
    <trip id="bus_4" depart="20.00" from="37190757#0" to="E24"/>
    <trip id="bus_5" depart="25.00" from="37190757#0" to="-302113468"/>
    <trip id="bus_6" depart="30.00" from="E17" to="E24"/>
    <trip id="bus_7" depart="35.00" from="37190757#0" to="-302113468"/>
    <trip id="bus_8" depart="40.00" from="37190757#0" to="10511797#0"/>
    <trip id="bus_9" depart="45.00" from="37190757#0" to="10511797#0"/>
    <trip id="bus_10" depart="50.00" from="37190757#0" to="-302113468"/>
    <trip id="bus_11" depart="55.00" from="E17" to="-404917415#2"/>
    <trip id="bus_12" depart="60.00" from="E17" to="10511797#0"/>
    <trip id="bus_13" depart="65.00" from="E0" to="-302113468"/>
    <trip id="bus_14" depart="70.00" from="404917414" to="E24"/>
    <trip id="bus_15" depart="75.00" from="37190757#0" to="E14"/>
    <trip id="bus_16" depart="80.00" from="E17" to="-302113468"/>
    <trip id="bus_17" depart="85.00" from="404917414" to="-E17"/>
    <trip id="bus_18" depart="90.00" from="-E26" to="E14"/>
    <trip id="bus_19" depart="95.00" from="E27" to="10511797#0"/>
    <trip id="bus_20" depart="100.00" from="-E24" to="10511797#0"/>
    <trip id="bus_21" depart="105.00" from="E0" to="-302113468"/>
    <trip id="bus_22" depart="110.00" from="E27" to="E14"/>
    <trip id="bus_23" depart="115.00" from="-E24" to="-302113468"/>
    <trip id="bus_24" depart="120.00" from="-E24" to="E14"/>
    <trip id="bus_25" depart="125.00" from="-E24" to="10511797#0"/>
    <trip id="bus_26" depart="130.00" from="37190757#0" to="-302113468"/>
    <trip id="bus_27" depart="135.00" from="E27" to="-302113468"/>
    <trip id="bus_28" depart="140.00" from="E27" to="E26"/>
    <trip id="bus_29" depart="145.00" from="302113468" to="E14"/>
    <trip id="bus_30" depart="150.00" from="E0" to="E24"/>
    <trip id="bus_31" depart="155.00" from="E17" to="10511797#0"/>
    <trip id="bus_32" depart="160.00" from="E0" to="-302113468"/>
    <trip id="bus_33" depart="165.00" from="37190757#0" to="E14"/>
    <trip id="bus_34" depart="170.00" from="404917414" to="E26"/>
    <trip id="bus_35" depart="175.00" from="302113468" to="-E17"/>
    <trip id="bus_36" depart="180.00" from="-E26" to="-302113468"/>
    <trip id="bus_37" depart="185.00" from="E27" to="E14"/>
    <trip id="bus_38" depart="190.00" from="302113468" to="10511797#0"/>
    <trip id="bus_39" depart="195.00" from="37190757#0" to="E14"/>
    <trip id="bus_40" depart="200.00" from="37190757#0" to="E26"/>
    <trip id="bus_41" depart="205.00" from="-E24" to="-302113468"/>
    <trip id="bus_42" depart="210.00" from="E0" to="-302113468"/>
    <trip id="bus_43" depart="215.00" from="37190757#0" to="-302113468"/>
    <trip id="bus_44" depart="220.00" from="37190757#0" to="-E17"/>
    <trip id="bus_45" depart="225.00" from="404917414" to="E14"/>
    <trip id="bus_46" depart="230.00" from="-E26" to="-302113468"/>
    <trip id="bus_47" depart="235.00" from="302113468" to="E14"/>
    <trip id="bus_48" depart="240.00" from="302113468" to="E14"/>
    <trip id="bus_49" depart="245.00" from="-E24" to="E14"/>
    <trip id="bus_50" depart="250.00" from="E0" to="10511797#0"/>
    <trip id="bus_51" depart="255.00" from="E0" to="-404917415#2"/>
    <trip id="bus_52" depart="260.00" from="37190757#0" to="10511797#0"/>
    <trip id="bus_53" depart="265.00" from="E27" to="E24"/>
    <trip id="bus_54" depart="270.00" from="37190757#0" to="E24"/>
    <trip id="bus_55" depart="275.00" from="404917414" to="E14"/>
    <trip id="bus_56" depart="280.00" from="37190757#0" to="10511797#0"/>
    <trip id="bus_57" depart="285.00" from="404917414" to="E24"/>
    <trip id="bus_58" depart="290.00" from="404917414" to="-302113468"/>
    <trip id="bus_59" depart="295.00" from="E0" to="E26"/>
    <trip id="bus_60" depart="300.00" from="E27" to="E14"/>
    <trip id="bus_61" depart="305.00" from="E0" to="10511797#0"/>
    <trip id="bus_62" depart="310.00" from="302113468" to="10511797#0"/>
    <trip id="bus_63" depart="315.00" from="37190757#0" to="-404917415#2"/>
    <trip id="bus_64" depart="320.00" from="302113468" to="10511797#0"/>
    <trip id="bus_65" depart="325.00" from="37190757#0" to="E24"/>
    <trip id="bus_66" depart="330.00" from="E0" to="10511797#0"/>
    <trip id="bus_67" depart="335.00" from="302113468" to="E24"/>
    <trip id="bus_68" depart="340.00" from="302113468" to="10511797#0"/>
    <trip id="bus_69" depart="345.00" from="302113468" to="E14"/>
    <trip id="bus_70" depart="350.00" from="37190757#0" to="-302113468"/>
    <trip id="bus_71" depart="355.00" from="404917414" to="E14"/>
    <trip id="bus_72" depart="360.00" from="E27" to="-404917415#2"/>
    <trip id="bus_73" depart="365.00" from="37190757#0" to="E26"/>
    <trip id="bus_74" depart="370.00" from="-E26" to="-404917415#2"/>
    <trip id="bus_75" depart="375.00" from="E17" to="E24"/>
    <trip id="bus_76" depart="380.00" from="37190757#0" to="-302113468"/>
    <trip id="bus_77" depart="385.00" from="E17" to="-404917415#2"/>
    <trip id="bus_78" depart="390.00" from="E17" to="-404917415#2"/>
    <trip id="bus_79" depart="395.00" from="-E24" to="E14"/>
    <trip id="bus_80" depart="400.00" from="37190757#0" to="-E17"/>
    <trip id="bus_81" depart="405.00" from="37190757#0" to="10511797#0"/>
    <trip id="bus_82" depart="410.00" from="37190757#0" to="E14"/>
    <trip id="bus_83" depart="415.00" from="-E24" to="E14"/>
    <trip id="bus_84" depart="420.00" from="37190757#0" to="E24"/>
    <trip id="bus_85" depart="425.00" from="302113468" to="E14"/>
    <trip id="bus_86" depart="430.00" from="-E26" to="E14"/>
    <trip id="bus_87" depart="435.00" from="E0" to="10511797#0"/>
    <trip id="bus_88" depart="440.00" from="37190757#0" to="-302113468"/>
    <trip id="bus_89" depart="445.00" from="E17" to="E24"/>
    <trip id="bus_90" depart="450.00" from="-E26" to="E14"/>
    <trip id="bus_91" depart="455.00" from="37190757#0" to="-302113468"/>
    <trip id="bus_92" depart="460.00" from="404917414" to="-302113468"/>
    <trip id="bus_93" depart="465.00" from="E17" to="E26"/>
    <trip id="bus_94" depart="470.00" from="E17" to="-302113468"/>
    <trip id="bus_95" depart="475.00" from="-E24" to="-404917415#2"/>
    <trip id="bus_96" depart="480.00" from="E0" to="E24"/>
    <trip id="bus_97" depart="485.00" from="302113468" to="E14"/>
    <trip id="bus_98" depart="490.00" from="302113468" to="E24"/>
    <trip id="bus_99" depart="495.00" from="37190757#0" to="E14"/>
    <trip id="bus_100" depart="500.00" from="37190757#0" to="E14"/>
    <trip id="bus_101" depart="505.00" from="-E26" to="10511797#0"/>
    <trip id="bus_102" depart="510.00" from="E17" to="10511797#0"/>
    <trip id="bus_103" depart="515.00" from="-E24" to="-302113468"/>
    <trip id="bus_104" depart="520.00" from="404917414" to="E24"/>
    <trip id="bus_105" depart="525.00" from="-E24" to="10511797#0"/>
    <trip id="bus_106" depart="530.00" from="37190757#0" to="-302113468"/>
    <trip id="bus_107" depart="535.00" from="E0" to="10511797#0"/>
    <trip id="bus_108" depart="540.00" from="E17" to="-302113468"/>
    <trip id="bus_109" depart="545.00" from="-E24" to="-302113468"/>
    <trip id="bus_110" depart="550.00" from="37190757#0" to="-302113468"/>
    <trip id="bus_111" depart="555.00" from="-E24" to="10511797#0"/>
    <trip id="bus_112" depart="560.00" from="E0" to="10511797#0"/>
    <trip id="bus_113" depart="565.00" from="E27" to="E24"/>
    <trip id="bus_114" depart="570.00" from="E27" to="-E17"/>
    <trip id="bus_115" depart="575.00" from="302113468" to="10511797#0"/>
    <trip id="bus_116" depart="580.00" from="-E24" to="E14"/>
    <trip id="bus_117" depart="585.00" from="302113468" to="-E17"/>
    <trip id="bus_118" depart="590.00" from="302113468" to="-404917415#2"/>
    <trip id="bus_119" depart="595.00" from="37190757#0" to="E24"/>
    <trip id="bus_120" depart="600.00" from="302113468" to="10511797#0"/>
    <trip id="bus_121" depart="605.00" from="E17" to="10511797#0"/>
    <trip id="bus_122" depart="610.00" from="37190757#0" to="-302113468"/>
    <trip id="bus_123" depart="615.00" from="E0" to="E14"/>
    <trip id="bus_124" depart="620.00" from="302113468" to="E14"/>
    <trip id="bus_125" depart="625.00" from="-E24" to="-404917415#2"/>
    <trip id="bus_126" depart="630.00" from="302113468" to="E24"/>
    <trip id="bus_127" depart="635.00" from="404917414" to="10511797#0"/>
    <trip id="bus_128" depart="640.00" from="37190757#0" to="10511797#0"/>
    <trip id="bus_129" depart="645.00" from="37190757#0" to="-404917415#2"/>
    <trip id="bus_130" depart="650.00" from="E17" to="E24"/>
    <trip id="bus_131" depart="655.00" from="37190757#0" to="10511797#0"/>
    <trip id="bus_132" depart="660.00" from="E27" to="-302113468"/>
    <trip id="bus_133" depart="665.00" from="E17" to="-302113468"/>
    <trip id="bus_134" depart="670.00" from="-E26" to="-E17"/>
    <trip id="bus_135" depart="675.00" from="404917414" to="-E17"/>
    <trip id="bus_136" depart="680.00" from="37190757#0" to="10511797#0"/>
    <trip id="bus_137" depart="685.00" from="E27" to="10511797#0"/>
    <trip id="bus_138" depart="690.00" from="302113468" to="E14"/>
    <trip id="bus_139" depart="695.00" from="E0" to="-302113468"/>
    <trip id="bus_140" depart="700.00" from="E27" to="E26"/>
    <trip id="bus_141" depart="705.00" from="37190757#0" to="E24"/>
    <trip id="bus_142" depart="710.00" from="302113468" to="E14"/>
    <trip id="bus_143" depart="715.00" from="37190757#0" to="10511797#0"/>
    <trip id="bus_144" depart="720.00" from="37190757#0" to="10511797#0"/>
    <trip id="bus_145" depart="725.00" from="E0" to="-302113468"/>
    <trip id="bus_146" depart="730.00" from="E27" to="-E17"/>
    <trip id="bus_147" depart="735.00" from="37190757#0" to="-E17"/>
    <trip id="bus_148" depart="740.00" from="404917414" to="E24"/>
    <trip id="bus_149" depart="745.00" from="-E24" to="10511797#0"/>
    <trip id="bus_150" depart="750.00" from="302113468" to="-404917415#2"/>
    <trip id="bus_151" depart="755.00" from="37190757#0" to="E14"/>
    <trip id="bus_152" depart="760.00" from="37190757#0" to="E14"/>
    <trip id="bus_153" depart="765.00" from="E27" to="E14"/>
    <trip id="bus_154" depart="770.00" from="E27" to="-E17"/>
    <trip id="bus_155" depart="775.00" from="E17" to="E26"/>
    <trip id="bus_156" depart="780.00" from="302113468" to="E14"/>
    <trip id="bus_157" depart="785.00" from="E17" to="10511797#0"/>
    <trip id="bus_158" depart="790.00" from="404917414" to="-E17"/>
    <trip id="bus_159" depart="795.00" from="E27" to="10511797#0"/>
    <trip id="bus_160" depart="800.00" from="302113468" to="10511797#0"/>
    <trip id="bus_161" depart="805.00" from="404917414" to="-E17"/>
    <trip id="bus_162" depart="810.00" from="302113468" to="E14"/>
    <trip id="bus_163" depart="815.00" from="302113468" to="10511797#0"/>
    <trip id="bus_164" depart="820.00" from="-E24" to="-E17"/>
    <trip id="bus_165" depart="825.00" from="-E24" to="10511797#0"/>
    <trip id="bus_166" depart="830.00" from="302113468" to="-E17"/>
    <trip id="bus_167" depart="835.00" from="-E26" to="-302113468"/>
    <trip id="bus_168" depart="840.00" from="404917414" to="-302113468"/>
    <trip id="bus_169" depart="845.00" from="404917414" to="E26"/>
    <trip id="bus_170" depart="850.00" from="-E24" to="-302113468"/>
    <trip id="bus_171" depart="855.00" from="E0" to="E24"/>
    <trip id="bus_172" depart="860.00" from="37190757#0" to="-E17"/>
    <trip id="bus_173" depart="865.00" from="E27" to="-404917415#2"/>
    <trip id="bus_174" depart="870.00" from="E17" to="E24"/>
    <trip id="bus_175" depart="875.00" from="37190757#0" to="E24"/>
    <trip id="bus_176" depart="880.00" from="302113468" to="E26"/>
    <trip id="bus_177" depart="885.00" from="E0" to="E14"/>
    <trip id="bus_178" depart="890.00" from="37190757#0" to="-404917415#2"/>
    <trip id="bus_179" depart="895.00" from="37190757#0" to="10511797#0"/>
    <trip id="bus_180" depart="900.00" from="404917414" to="-302113468"/>
    <trip id="bus_181" depart="905.00" from="-E24" to="-404917415#2"/>
    <trip id="bus_182" depart="910.00" from="37190757#0" to="E24"/>
    <trip id="bus_183" depart="915.00" from="E17" to="E24"/>
    <trip id="bus_184" depart="920.00" from="E0" to="10511797#0"/>
    <trip id="bus_185" depart="925.00" from="-E24" to="-E17"/>
    <trip id="bus_186" depart="930.00" from="E0" to="-302113468"/>
    <trip id="bus_187" depart="935.00" from="302113468" to="-E17"/>
    <trip id="bus_188" depart="940.00" from="37190757#0" to="-302113468"/>
    <trip id="bus_189" depart="945.00" from="37190757#0" to="-302113468"/>
    <trip id="bus_190" depart="950.00" from="E17" to="E24"/>
    <trip id="bus_191" depart="955.00" from="37190757#0" to="E26"/>
    <trip id="bus_192" depart="960.00" from="E0" to="10511797#0"/>
    <trip id="bus_193" depart="965.00" from="404917414" to="10511797#0"/>
    <trip id="bus_194" depart="970.00" from="302113468" to="E26"/>
    <trip id="bus_195" depart="975.00" from="37190757#0" to="10511797#0"/>
    <trip id="bus_196" depart="980.00" from="404917414" to="-E17"/>
    <trip id="bus_197" depart="985.00" from="E27" to="E24"/>
    <trip id="bus_198" depart="990.00" from="37190757#0" to="-E17"/>
    <trip id="bus_199" depart="995.00" from="37190757#0" to="-302113468"/>
    <trip id="bus_200" depart="1000.00" from="37190757#0" to="10511797#0"/>
    <trip id="bus_201" depart="1005.00" from="37190757#0" to="E14"/>
    <trip id="bus_202" depart="1010.00" from="E0" to="10511797#0"/>
    <trip id="bus_203" depart="1015.00" from="E27" to="E14"/>
    <trip id="bus_204" depart="1020.00" from="37190757#0" to="-E17"/>
    <trip id="bus_205" depart="1025.00" from="-E26" to="10511797#0"/>
    <trip id="bus_206" depart="1030.00" from="E27" to="-302113468"/>
    <trip id="bus_207" depart="1035.00" from="404917414" to="10511797#0"/>
    <trip id="bus_208" depart="1040.00" from="302113468" to="E14"/>
    <trip id="bus_209" depart="1045.00" from="37190757#0" to="10511797#0"/>
    <trip id="bus_210" depart="1050.00" from="37190757#0" to="-302113468"/>
    <trip id="bus_211" depart="1055.00" from="-E24" to="-302113468"/>
    <trip id="bus_212" depart="1060.00" from="E27" to="E14"/>
    <trip id="bus_213" depart="1065.00" from="302113468" to="10511797#0"/>
    <trip id="bus_214" depart="1070.00" from="E0" to="-404917415#2"/>
    <trip id="bus_215" depart="1075.00" from="37190757#0" to="E24"/>
    <trip id="bus_216" depart="1080.00" from="-E26" to="-302113468"/>
    <trip id="bus_217" depart="1085.00" from="-E26" to="-404917415#2"/>
    <trip id="bus_218" depart="1090.00" from="302113468" to="-404917415#2"/>
    <trip id="bus_219" depart="1095.00" from="37190757#0" to="-302113468"/>
    <trip id="bus_220" depart="1100.00" from="-E26" to="10511797#0"/>
    <trip id="bus_221" depart="1105.00" from="37190757#0" to="E14"/>
    <trip id="bus_222" depart="1110.00" from="37190757#0" to="E24"/>
    <trip id="bus_223" depart="1115.00" from="E27" to="-404917415#2"/>
    <trip id="bus_224" depart="1120.00" from="-E24" to="E14"/>
    <trip id="bus_225" depart="1125.00" from="37190757#0" to="E24"/>
    <trip id="bus_226" depart="1130.00" from="404917414" to="E24"/>
    <trip id="bus_227" depart="1135.00" from="E0" to="E24"/>
    <trip id="bus_228" depart="1140.00" from="E0" to="E24"/>
    <trip id="bus_229" depart="1145.00" from="37190757#0" to="-302113468"/>
    <trip id="bus_230" depart="1150.00" from="302113468" to="E24"/>
    <trip id="bus_231" depart="1155.00" from="E0" to="E24"/>
    <trip id="bus_232" depart="1160.00" from="E0" to="E24"/>
    <trip id="bus_233" depart="1165.00" from="E27" to="-404917415#2"/>
    <trip id="bus_234" depart="1170.00" from="E27" to="E24"/>
    <trip id="bus_235" depart="1175.00" from="-E24" to="-E17"/>
    <trip id="bus_236" depart="1180.00" from="E17" to="-404917415#2"/>
    <trip id="bus_237" depart="1185.00" from="404917414" to="10511797#0"/>
    <trip id="bus_238" depart="1190.00" from="37190757#0" to="10511797#0"/>
    <trip id="bus_239" depart="1195.00" from="E0" to="-404917415#2"/>
    <trip id="bus_240" depart="1200.00" from="E27" to="E26"/>
    <trip id="bus_241" depart="1205.00" from="302113468" to="-E17"/>
    <trip id="bus_242" depart="1210.00" from="37190757#0" to="10511797#0"/>
    <trip id="bus_243" depart="1215.00" from="404917414" to="E14"/>
    <trip id="bus_244" depart="1220.00" from="37190757#0" to="10511797#0"/>
    <trip id="bus_245" depart="1225.00" from="E0" to="E24"/>
    <trip id="bus_246" depart="1230.00" from="37190757#0" to="E14"/>
    <trip id="bus_247" depart="1235.00" from="302113468" to="10511797#0"/>
    <trip id="bus_248" depart="1240.00" from="E17" to="E24"/>
    <trip id="bus_249" depart="1245.00" from="404917414" to="E26"/>
    <trip id="bus_250" depart="1250.00" from="302113468" to="10511797#0"/>
    <trip id="bus_251" depart="1255.00" from="-E26" to="10511797#0"/>
    <trip id="bus_252" depart="1260.00" from="-E24" to="E14"/>
    <trip id="bus_253" depart="1265.00" from="-E24" to="-302113468"/>
    <trip id="bus_254" depart="1270.00" from="-E24" to="-E17"/>
    <trip id="bus_255" depart="1275.00" from="E0" to="E24"/>
    <trip id="bus_256" depart="1280.00" from="E0" to="-E17"/>
    <trip id="bus_257" depart="1285.00" from="-E24" to="-E17"/>
    <trip id="bus_258" depart="1290.00" from="37190757#0" to="E24"/>
    <trip id="bus_259" depart="1295.00" from="E27" to="E24"/>
    <trip id="bus_260" depart="1300.00" from="404917414" to="E14"/>
    <trip id="bus_261" depart="1305.00" from="404917414" to="E14"/>
    <trip id="bus_262" depart="1310.00" from="E17" to="E26"/>
    <trip id="bus_263" depart="1315.00" from="37190757#0" to="10511797#0"/>
    <trip id="bus_264" depart="1320.00" from="E27" to="-404917415#2"/>
    <trip id="bus_265" depart="1325.00" from="37190757#0" to="E14"/>
    <trip id="bus_266" depart="1330.00" from="37190757#0" to="-302113468"/>
    <trip id="bus_267" depart="1335.00" from="404917414" to="E24"/>
    <trip id="bus_268" depart="1340.00" from="37190757#0" to="-302113468"/>
    <trip id="bus_269" depart="1345.00" from="-E24" to="-302113468"/>
    <trip id="bus_270" depart="1350.00" from="E17" to="E24"/>
    <trip id="bus_271" depart="1355.00" from="-E24" to="-404917415#2"/>
    <trip id="bus_272" depart="1360.00" from="-E26" to="10511797#0"/>
    <trip id="bus_273" depart="1365.00" from="E17" to="E24"/>
    <trip id="bus_274" depart="1370.00" from="37190757#0" to="E26"/>
    <trip id="bus_275" depart="1375.00" from="37190757#0" to="-302113468"/>
    <trip id="bus_276" depart="1380.00" from="E17" to="10511797#0"/>
    <trip id="bus_277" depart="1385.00" from="37190757#0" to="-302113468"/>
    <trip id="bus_278" depart="1390.00" from="E17" to="-404917415#2"/>
    <trip id="bus_279" depart="1395.00" from="302113468" to="E14"/>
    <trip id="bus_280" depart="1400.00" from="E0" to="E26"/>
    <trip id="bus_281" depart="1405.00" from="-E24" to="-404917415#2"/>
    <trip id="bus_282" depart="1410.00" from="E27" to="E24"/>
    <trip id="bus_283" depart="1415.00" from="404917414" to="10511797#0"/>
    <trip id="bus_284" depart="1420.00" from="302113468" to="E24"/>
    <trip id="bus_285" depart="1425.00" from="-E24" to="-404917415#2"/>
    <trip id="bus_286" depart="1430.00" from="37190757#0" to="-E17"/>
    <trip id="bus_287" depart="1435.00" from="-E24" to="10511797#0"/>
    <trip id="bus_288" depart="1440.00" from="E17" to="-302113468"/>
    <trip id="bus_289" depart="1445.00" from="E17" to="10511797#0"/>
    <trip id="bus_290" depart="1450.00" from="37190757#0" to="E26"/>
    <trip id="bus_291" depart="1455.00" from="-E26" to="-404917415#2"/>
    <trip id="bus_292" depart="1460.00" from="E17" to="-404917415#2"/>
    <trip id="bus_293" depart="1465.00" from="E17" to="-302113468"/>
    <trip id="bus_294" depart="1470.00" from="-E26" to="10511797#0"/>
    <trip id="bus_295" depart="1475.00" from="37190757#0" to="-404917415#2"/>
    <trip id="bus_296" depart="1480.00" from="-E24" to="-302113468"/>
    <trip id="bus_297" depart="1485.00" from="E17" to="-404917415#2"/>
    <trip id="bus_298" depart="1490.00" from="302113468" to="E24"/>
    <trip id="bus_299" depart="1495.00" from="E0" to="10511797#0"/>
    <trip id="bus_300" depart="1500.00" from="302113468" to="10511797#0"/>
    <trip id="bus_301" depart="1505.00" from="302113468" to="-E17"/>
    <trip id="bus_302" depart="1510.00" from="E0" to="E26"/>
    <trip id="bus_303" depart="1515.00" from="302113468" to="10511797#0"/>
    <trip id="bus_304" depart="1520.00" from="302113468" to="10511797#0"/>
    <trip id="bus_305" depart="1525.00" from="37190757#0" to="E24"/>
    <trip id="bus_306" depart="1530.00" from="E17" to="E24"/>
    <trip id="bus_307" depart="1535.00" from="E27" to="10511797#0"/>
    <trip id="bus_308" depart="1540.00" from="E0" to="E14"/>
    <trip id="bus_309" depart="1545.00" from="E17" to="-404917415#2"/>
    <trip id="bus_310" depart="1550.00" from="E0" to="10511797#0"/>
    <trip id="bus_311" depart="1555.00" from="E0" to="-E17"/>
    <trip id="bus_312" depart="1560.00" from="37190757#0" to="-302113468"/>
    <trip id="bus_313" depart="1565.00" from="37190757#0" to="E14"/>
    <trip id="bus_314" depart="1570.00" from="37190757#0" to="10511797#0"/>
    <trip id="bus_315" depart="1575.00" from="404917414" to="10511797#0"/>
    <trip id="bus_316" depart="1580.00" from="-E24" to="10511797#0"/>
    <trip id="bus_317" depart="1585.00" from="37190757#0" to="-302113468"/>
    <trip id="bus_318" depart="1590.00" from="-E24" to="10511797#0"/>
    <trip id="bus_319" depart="1595.00" from="E17" to="E24"/>
    <trip id="bus_320" depart="1600.00" from="37190757#0" to="E24"/>
    <trip id="bus_321" depart="1605.00" from="E0" to="E24"/>
    <trip id="bus_322" depart="1610.00" from="37190757#0" to="E24"/>
    <trip id="bus_323" depart="1615.00" from="E0" to="E24"/>
    <trip id="bus_324" depart="1620.00" from="-E24" to="E14"/>
    <trip id="bus_325" depart="1625.00" from="37190757#0" to="E26"/>
    <trip id="bus_326" depart="1630.00" from="37190757#0" to="E14"/>
    <trip id="bus_327" depart="1635.00" from="E0" to="-302113468"/>
    <trip id="bus_328" depart="1640.00" from="404917414" to="-302113468"/>
    <trip id="bus_329" depart="1645.00" from="-E24" to="-404917415#2"/>
    <trip id="bus_330" depart="1650.00" from="E17" to="E24"/>
    <trip id="bus_331" depart="1655.00" from="-E24" to="-404917415#2"/>
    <trip id="bus_332" depart="1660.00" from="302113468" to="-E17"/>
    <trip id="bus_333" depart="1665.00" from="-E26" to="E14"/>
    <trip id="bus_334" depart="1670.00" from="E0" to="-E17"/>
    <trip id="bus_335" depart="1675.00" from="E27" to="E24"/>
    <trip id="bus_336" depart="1680.00" from="-E26" to="-302113468"/>
    <trip id="bus_337" depart="1685.00" from="E0" to="E26"/>
    <trip id="bus_338" depart="1690.00" from="E0" to="10511797#0"/>
    <trip id="bus_339" depart="1695.00" from="302113468" to="E14"/>
    <trip id="bus_340" depart="1700.00" from="37190757#0" to="-302113468"/>
    <trip id="bus_341" depart="1705.00" from="37190757#0" to="10511797#0"/>
    <trip id="bus_342" depart="1710.00" from="E0" to="E14"/>
    <trip id="bus_343" depart="1715.00" from="302113468" to="10511797#0"/>
    <trip id="bus_344" depart="1720.00" from="E0" to="E26"/>
    <trip id="bus_345" depart="1725.00" from="E0" to="10511797#0"/>
    <trip id="bus_346" depart="1730.00" from="37190757#0" to="10511797#0"/>
    <trip id="bus_347" depart="1735.00" from="37190757#0" to="10511797#0"/>
    <trip id="bus_348" depart="1740.00" from="37190757#0" to="10511797#0"/>
    <trip id="bus_349" depart="1745.00" from="302113468" to="E24"/>
    <trip id="bus_350" depart="1750.00" from="302113468" to="E26"/>
    <trip id="bus_351" depart="1755.00" from="E27" to="E14"/>
    <trip id="bus_352" depart="1760.00" from="E17" to="-302113468"/>
    <trip id="bus_353" depart="1765.00" from="E0" to="E24"/>
    <trip id="bus_354" depart="1770.00" from="37190757#0" to="-404917415#2"/>
    <trip id="bus_355" depart="1775.00" from="37190757#0" to="E24"/>
    <trip id="bus_356" depart="1780.00" from="302113468" to="10511797#0"/>
    <trip id="bus_357" depart="1785.00" from="302113468" to="10511797#0"/>
    <trip id="bus_358" depart="1790.00" from="404917414" to="-302113468"/>
    <trip id="bus_359" depart="1795.00" from="302113468" to="10511797#0"/>
    <trip id="bus_360" depart="1800.00" from="37190757#0" to="10511797#0"/>
    <trip id="bus_361" depart="1805.00" from="E0" to="10511797#0"/>
    <trip id="bus_362" depart="1810.00" from="E27" to="-302113468"/>
    <trip id="bus_363" depart="1815.00" from="302113468" to="10511797#0"/>
    <trip id="bus_364" depart="1820.00" from="37190757#0" to="10511797#0"/>
    <trip id="bus_365" depart="1825.00" from="37190757#0" to="E24"/>
    <trip id="bus_366" depart="1830.00" from="404917414" to="10511797#0"/>
    <trip id="bus_367" depart="1835.00" from="E0" to="-404917415#2"/>
    <trip id="bus_368" depart="1840.00" from="E0" to="10511797#0"/>
    <trip id="bus_369" depart="1845.00" from="-E24" to="-302113468"/>
    <trip id="bus_370" depart="1850.00" from="302113468" to="E24"/>
    <trip id="bus_371" depart="1855.00" from="E27" to="10511797#0"/>
    <trip id="bus_372" depart="1860.00" from="37190757#0" to="-404917415#2"/>
    <trip id="bus_373" depart="1865.00" from="37190757#0" to="E14"/>
    <trip id="bus_374" depart="1870.00" from="404917414" to="10511797#0"/>
    <trip id="bus_375" depart="1875.00" from="-E24" to="E14"/>
    <trip id="bus_376" depart="1880.00" from="404917414" to="E14"/>
    <trip id="bus_377" depart="1885.00" from="302113468" to="E24"/>
    <trip id="bus_378" depart="1890.00" from="302113468" to="-404917415#2"/>
    <trip id="bus_379" depart="1895.00" from="E17" to="10511797#0"/>
    <trip id="bus_380" depart="1900.00" from="37190757#0" to="10511797#0"/>
    <trip id="bus_381" depart="1905.00" from="37190757#0" to="10511797#0"/>
    <trip id="bus_382" depart="1910.00" from="-E24" to="E14"/>
    <trip id="bus_383" depart="1915.00" from="37190757#0" to="-302113468"/>
    <trip id="bus_384" depart="1920.00" from="302113468" to="10511797#0"/>
    <trip id="bus_385" depart="1925.00" from="E0" to="-E17"/>
    <trip id="bus_386" depart="1930.00" from="E17" to="10511797#0"/>
    <trip id="bus_387" depart="1935.00" from="E17" to="10511797#0"/>
    <trip id="bus_388" depart="1940.00" from="37190757#0" to="E24"/>
    <trip id="bus_389" depart="1945.00" from="37190757#0" to="10511797#0"/>
    <trip id="bus_390" depart="1950.00" from="37190757#0" to="10511797#0"/>
    <trip id="bus_391" depart="1955.00" from="37190757#0" to="E14"/>
    <trip id="bus_392" depart="1960.00" from="E0" to="E14"/>
    <trip id="bus_393" depart="1965.00" from="E17" to="10511797#0"/>
    <trip id="bus_394" depart="1970.00" from="E17" to="-302113468"/>
    <trip id="bus_395" depart="1975.00" from="-E24" to="-302113468"/>
    <trip id="bus_396" depart="1980.00" from="404917414" to="-E17"/>
    <trip id="bus_397" depart="1985.00" from="E0" to="E14"/>
    <trip id="bus_398" depart="1990.00" from="-E26" to="-302113468"/>
    <trip id="bus_399" depart="1995.00" from="E0" to="10511797#0"/>
    <trip id="bus_400" depart="2000.00" from="302113468" to="E24"/>
    <trip id="bus_401" depart="2005.00" from="-E24" to="E14"/>
    <trip id="bus_402" depart="2010.00" from="37190757#0" to="-404917415#2"/>
    <trip id="bus_403" depart="2015.00" from="37190757#0" to="E14"/>
    <trip id="bus_404" depart="2020.00" from="302113468" to="10511797#0"/>
    <trip id="bus_405" depart="2025.00" from="37190757#0" to="-E17"/>
    <trip id="bus_406" depart="2030.00" from="37190757#0" to="-404917415#2"/>
    <trip id="bus_407" depart="2035.00" from="37190757#0" to="-302113468"/>
    <trip id="bus_408" depart="2040.00" from="E0" to="E14"/>
    <trip id="bus_409" depart="2045.00" from="E0" to="E14"/>
    <trip id="bus_410" depart="2050.00" from="E0" to="E26"/>
    <trip id="bus_411" depart="2055.00" from="404917414" to="10511797#0"/>
    <trip id="bus_412" depart="2060.00" from="E0" to="E24"/>
    <trip id="bus_413" depart="2065.00" from="37190757#0" to="E24"/>
    <trip id="bus_414" depart="2070.00" from="E0" to="E24"/>
    <trip id="bus_415" depart="2075.00" from="E27" to="10511797#0"/>
    <trip id="bus_416" depart="2080.00" from="-E24" to="10511797#0"/>
    <trip id="bus_417" depart="2085.00" from="37190757#0" to="E24"/>
    <trip id="bus_418" depart="2090.00" from="-E24" to="-404917415#2"/>
    <trip id="bus_419" depart="2095.00" from="404917414" to="10511797#0"/>
    <trip id="bus_420" depart="2100.00" from="404917414" to="10511797#0"/>
    <trip id="bus_421" depart="2105.00" from="37190757#0" to="10511797#0"/>
    <trip id="bus_422" depart="2110.00" from="E17" to="E26"/>
    <trip id="bus_423" depart="2115.00" from="37190757#0" to="-404917415#2"/>
    <trip id="bus_424" depart="2120.00" from="E27" to="10511797#0"/>
    <trip id="bus_425" depart="2125.00" from="302113468" to="E26"/>
    <trip id="bus_426" depart="2130.00" from="-E26" to="-404917415#2"/>