<?xml version="1.0" encoding="UTF-8"?>

<!-- generated on 2025-11-26T10:50:50.209842+02:00 by Eclipse SUMO netedit 1.25.0
<neteditConfiguration xmlns:xsi="http://www.w3.org/2001/XMLSchema-instance" xsi:noNamespaceSchemaLocation="http://sumo.dlr.de/xsd/neteditConfiguration.xsd">

    <input>
        <sumo-net-file value="E:\Facultate\SSC\PROIECTSEMAFOR\Trafic Simulation\network.net.xml"/>
    </input>

    <output>
        <output-file value="E:\Facultate\SSC\PROIECTSEMAFOR\Trafic Simulation\network.net.xml"/>
        <output.street-names value="true"/>
    </output>

    <processing>
        <geometry.min-radius.fix.railways value="false"/>
        <geometry.avoid-overlap value="false"/>
        <geometry.max-grade.fix value="false"/>
        <offset.disable-normalization value="true"/>
        <lefthand value="0"/>
    </processing>

    <junctions>
        <no-turnarounds value="true"/>
        <junctions.corner-detail value="5"/>
        <junctions.limit-turn-speed value="5.50"/>
        <rectangular-lane-cut value="0"/>
    </junctions>

    <pedestrian>
        <walkingareas value="0"/>
    </pedestrian>

</neteditConfiguration>
-->

<net version="1.20" junctionCornerDetail="5" limitTurnSpeed="5.50" avoidOverlap="0" xmlns:xsi="http://www.w3.org/2001/XMLSchema-instance" xsi:noNamespaceSchemaLocation="http://sumo.dlr.de/xsd/net_file.xsd">

    <location netOffset="-698001.28,-5182365.41" convBoundary="23.07,51.04,730.22,971.13" origBoundary="23.593513,46.765296,23.603145,46.774904" projParameter="+proj=utm +zone=34 +ellps=WGS84 +datum=WGS84 +units=m +no_defs"/>

    <type id="highway.primary" priority="12" numLanes="2" speed="27.78" disallow="tram rail_urban rail rail_electric rail_fast ship container cable_car subway aircraft wheelchair scooter drone" oneway="0"/>
    <type id="highway.secondary" priority="11" numLanes="1" speed="27.78" disallow="tram rail_urban rail rail_electric rail_fast ship container cable_car subway aircraft wheelchair scooter drone" oneway="0"/>

    <edge id=":1708841044_0" function="internal">
        <lane id=":1708841044_0_0" index="0" disallow="tram rail_urban rail rail_electric rail_fast ship container cable_car subway aircraft wheelchair scooter drone" speed="13.89" length="8.55" shape="293.38,888.68 286.56,884.61"/>
        <lane id=":1708841044_0_1" index="1" disallow="tram rail_urban rail rail_electric rail_fast ship container cable_car subway aircraft wheelchair scooter drone" speed="13.89" length="8.55" shape="295.03,885.94 292.23,885.42 290.00,886.64 287.75,887.87 284.94,887.37"/>
        <lane id=":1708841044_0_2" index="2" disallow="tram rail_urban rail rail_electric rail_fast ship container cable_car subway aircraft wheelchair scooter drone" speed="13.89" length="8.55" shape="295.03,885.94 288.19,881.86"/>
        <lane id=":1708841044_0_3" index="3" disallow="tram rail_urban rail rail_electric rail_fast ship container cable_car subway aircraft wheelchair scooter drone" speed="13.89" length="8.55" shape="296.69,883.20 289.82,879.10"/>
        <lane id=":1708841044_0_4" index="4" disallow="tram rail_urban rail rail_electric rail_fast ship container cable_car subway aircraft wheelchair scooter drone" speed="13.89" length="8.55" shape="298.34,880.46 291.44,876.34"/>
    </edge>
    <edge id=":1708841044_5" function="internal">
        <lane id=":1708841044_5_0" index="0" allow="bus" speed="13.89" length="8.07" shape="293.07,873.59 300.00,877.72"/>
    </edge>
    <edge id=":2_0" function="internal">
        <lane id=":2_0_0" index="0" speed="7.57" length="11.98" shape="459.07,386.75 455.51,385.59 452.57,385.53 450.24,386.58 448.53,388.72"/>
    </edge>
    <edge id=":2_1" function="internal">
        <lane id=":2_1_0" index="0" disallow="tram rail_urban rail rail_electric rail_fast ship container cable_car subway aircraft wheelchair scooter drone" speed="15.28" length="31.48" shape="460.36,383.82 430.59,373.48"/>
        <lane id=":2_1_1" index="1" disallow="tram rail_urban rail rail_electric rail_fast ship container cable_car subway aircraft wheelchair scooter drone" speed="15.28" length="31.48" shape="460.36,383.82 432.04,370.62"/>
        <lane id=":2_1_2" index="2" disallow="tram rail_urban rail rail_electric rail_fast ship container cable_car subway aircraft wheelchair scooter drone" speed="15.28" length="31.48" shape="460.36,383.82 454.26,380.62 448.70,376.98 442.26,372.74 433.48,367.77"/>
        <lane id=":2_1_3" index="3" disallow="tram rail_urban rail rail_electric rail_fast ship container cable_car subway aircraft wheelchair scooter drone" speed="15.28" length="31.48" shape="460.36,383.82 454.51,380.19 449.49,375.58 443.55,370.37 434.93,364.91"/>
    </edge>
    <edge id=":2_5" function="internal">
        <lane id=":2_5_0" index="0" disallow="tram rail_urban rail rail_electric rail_fast ship container cable_car subway aircraft wheelchair scooter drone" speed="15.28" length="22.19" shape="453.56,368.21 451.87,374.45 452.54,379.25 453.18,384.02 451.37,390.20"/>
        <lane id=":2_5_1" index="1" disallow="tram rail_urban rail rail_electric rail_fast ship container cable_car subway aircraft wheelchair scooter drone" speed="15.28" length="22.19" shape="450.69,366.79 449.01,373.01 449.69,377.80 450.33,382.56 448.53,388.72"/>
        <lane id=":2_5_2" index="2" disallow="tram rail_urban rail rail_electric rail_fast ship container cable_car subway aircraft wheelchair scooter drone" speed="15.28" length="22.19" shape="447.82,365.37 446.15,371.58 446.84,376.35 447.48,381.10 445.69,387.24"/>
        <lane id=":2_5_3" index="3" disallow="tram rail_urban rail rail_electric rail_fast ship container cable_car subway aircraft wheelchair scooter drone" speed="15.28" length="22.19" shape="444.95,363.96 443.29,370.14 443.98,374.90 444.64,379.64 442.85,385.76"/>
        <lane id=":2_5_4" index="4" disallow="tram rail_urban rail rail_electric rail_fast ship container cable_car subway aircraft wheelchair scooter drone" speed="15.28" length="22.19" shape="444.95,363.96 442.91,369.78 442.56,374.16 442.18,378.51 440.02,384.28"/>
    </edge>
    <edge id=":2_10" function="internal">
        <lane id=":2_10_0" index="0" disallow="tram rail_urban rail rail_electric rail_fast ship container cable_car subway aircraft wheelchair scooter drone" speed="7.86" length="13.84" shape="444.95,363.96 442.80,367.11 440.17,368.79 437.06,369.01 433.48,367.77"/>
        <lane id=":2_10_1" index="1" disallow="tram rail_urban rail rail_electric rail_fast ship container cable_car subway aircraft wheelchair scooter drone" speed="6.34" length="8.63" shape="442.08,362.54 440.74,364.50 439.10,365.55 437.16,365.69 434.93,364.91"/>
    </edge>
    <edge id=":258985593_0" function="internal">
        <lane id=":258985593_0_0" index="0" disallow="tram rail_urban rail rail_electric rail_fast ship container cable_car subway aircraft wheelchair scooter drone" speed="15.28" length="0.29" shape="286.39,472.45 286.53,472.12"/>
        <lane id=":258985593_0_1" index="1" disallow="tram rail_urban rail rail_electric rail_fast ship container cable_car subway aircraft wheelchair scooter drone" speed="15.28" length="0.29" shape="289.36,473.67 289.48,473.38"/>
        <lane id=":258985593_0_2" index="2" disallow="tram rail_urban rail rail_electric rail_fast ship container cable_car subway aircraft wheelchair scooter drone" speed="15.28" length="0.29" shape="292.32,474.88 292.42,474.64"/>
        <lane id=":258985593_0_3" index="3" disallow="tram rail_urban rail rail_electric rail_fast ship container cable_car subway aircraft wheelchair scooter drone" speed="15.28" length="0.29" shape="295.28,476.09 295.36,475.90"/>
    </edge>
    <edge id=":291696003_0" function="internal">
        <lane id=":291696003_0_0" index="0" disallow="tram rail_urban rail rail_electric rail_fast ship container cable_car subway aircraft wheelchair scooter drone" speed="16.67" length="8.20" shape="325.45,381.43 326.16,379.15 326.28,377.47 326.39,375.79 327.08,373.49"/>
        <lane id=":291696003_0_1" index="1" disallow="tram rail_urban rail rail_electric rail_fast ship container cable_car subway aircraft wheelchair scooter drone" speed="16.67" length="8.20" shape="325.45,381.43 326.62,379.34 327.75,378.08 328.88,376.83 330.03,374.73"/>
        <lane id=":291696003_0_2" index="2" disallow="tram rail_urban rail rail_electric rail_fast ship container cable_car subway aircraft wheelchair scooter drone" speed="16.67" length="8.20" shape="328.39,382.69 329.57,380.59 330.70,379.33 331.83,378.07 332.98,375.96"/>
        <lane id=":291696003_0_3" index="3" disallow="tram rail_urban rail rail_electric rail_fast ship container cable_car subway aircraft wheelchair scooter drone" speed="16.67" length="8.20" shape="331.33,383.95 332.51,381.84 333.65,380.58 334.78,379.31 335.93,377.20"/>
        <lane id=":291696003_0_4" index="4" disallow="tram rail_urban rail rail_electric rail_fast ship container cable_car subway aircraft wheelchair scooter drone" speed="16.67" length="8.20" shape="334.27,385.22 335.46,383.10 336.59,381.83 337.73,380.56 338.89,378.43"/>
    </edge>
    <edge id=":291925116_0" function="internal">
        <lane id=":291925116_0_0" index="0" disallow="tram rail_urban rail rail_electric rail_fast ship container cable_car subway aircraft wheelchair scooter drone" speed="13.89" length="8.02" shape="288.86,243.35 281.25,240.80"/>
    </edge>
    <edge id=":291925116_1" function="internal">
        <lane id=":291925116_1_0" index="0" disallow="tram rail_urban rail rail_electric rail_fast ship container cable_car subway aircraft wheelchair scooter drone" speed="13.89" length="8.58" shape="283.40,234.76 285.93,235.02 287.76,234.46 289.57,233.94 292.07,234.30"/>
        <lane id=":291925116_1_1" index="1" disallow="tram rail_urban rail rail_electric rail_fast ship container cable_car subway aircraft wheelchair scooter drone" speed="13.89" length="8.58" shape="282.33,237.78 284.86,238.04 286.69,237.48 288.50,236.95 291.00,237.31"/>
        <lane id=":291925116_1_2" index="2" disallow="tram rail_urban rail rail_electric rail_fast ship container cable_car subway aircraft wheelchair scooter drone" speed="13.89" length="8.58" shape="282.33,237.78 289.93,240.33"/>
    </edge>
    <edge id=":291925120_0" function="internal">
        <lane id=":291925120_0_0" index="0" disallow="tram rail_urban rail rail_electric rail_fast ship container cable_car subway aircraft wheelchair scooter drone" speed="13.89" length="9.09" shape="194.94,560.03 202.38,563.12"/>
        <lane id=":291925120_0_1" index="1" disallow="tram rail_urban rail rail_electric rail_fast ship container cable_car subway aircraft wheelchair scooter drone" speed="13.89" length="9.09" shape="194.94,560.03 197.04,561.40 198.04,563.00 199.04,564.62 201.10,566.06"/>
        <lane id=":291925120_0_2" index="2" disallow="tram rail_urban rail rail_electric rail_fast ship container cable_car subway aircraft wheelchair scooter drone" speed="13.89" length="9.09" shape="193.76,563.00 195.83,564.36 196.81,565.95 197.79,567.56 199.83,568.99"/>
        <lane id=":291925120_0_3" index="3" disallow="tram rail_urban rail rail_electric rail_fast ship container cable_car subway aircraft wheelchair scooter drone" speed="13.89" length="9.09" shape="193.76,563.00 195.84,564.90 196.18,567.41 196.51,569.95 198.56,571.93"/>
    </edge>
    <edge id=":3_0" function="internal">
        <lane id=":3_0_0" index="0" speed="13.89" length="23.97" shape="334.68,613.98 323.65,635.26"/>
    </edge>
    <edge id=":3_1" function="internal">
        <lane id=":3_1_0" index="0" disallow="tram rail_urban rail rail_electric rail_fast ship container cable_car subway aircraft wheelchair scooter drone" speed="7.33" length="3.29" shape="331.85,612.50 330.84,615.63"/>
        <lane id=":3_1_1" index="1" disallow="tram rail_urban rail rail_electric rail_fast ship container cable_car subway aircraft wheelchair scooter drone" speed="8.03" length="4.84" shape="331.85,612.50 330.21,616.89 330.22,617.05"/>
        <lane id=":3_1_2" index="2" disallow="tram rail_urban rail rail_electric rail_fast ship container cable_car subway aircraft wheelchair scooter drone" speed="9.27" length="11.58" shape="329.01,611.02 326.85,616.90 327.04,621.74 327.31,622.14"/>
    </edge>
    <edge id=":3_4" function="internal">
        <lane id=":3_4_0" index="0" speed="13.89" length="24.43" shape="326.17,609.54 323.71,616.43 323.47,621.66 323.24,626.90 320.81,633.79"/>
        <lane id=":3_4_1" index="1" speed="13.89" length="24.43" shape="326.17,609.54 323.31,616.12 322.05,620.93 320.80,625.74 317.96,632.33"/>
        <lane id=":3_4_2" index="2" speed="13.89" length="24.43" shape="323.33,608.06 320.47,614.64 319.21,619.45 317.96,624.27 315.12,630.86"/>
        <lane id=":3_4_3" index="3" speed="13.89" length="24.43" shape="323.33,608.06 312.27,629.39"/>
    </edge>
    <edge id=":3_14" function="internal">
        <lane id=":3_14_0" index="0" disallow="tram rail_urban rail rail_electric rail_fast ship container cable_car subway aircraft wheelchair scooter drone" speed="7.33" length="9.63" shape="330.84,615.63 331.34,618.32 333.33,620.55 336.81,622.32"/>
        <lane id=":3_14_1" index="0" disallow="tram rail_urban rail rail_electric rail_fast ship container cable_car subway aircraft wheelchair scooter drone" speed="8.03" length="10.86" shape="330.22,617.05 330.30,620.49 332.12,623.30 335.66,625.31"/>
        <lane id=":3_14_2" index="0" disallow="tram rail_urban rail rail_electric rail_fast ship container cable_car subway aircraft wheelchair scooter drone" speed="9.27" length="9.72" shape="327.31,622.14 329.59,625.54 334.50,628.29"/>
    </edge>
    <edge id=":3_8" function="internal">
        <lane id=":3_8_0" index="0" disallow="tram rail_urban rail rail_electric rail_fast ship container cable_car subway aircraft wheelchair scooter drone" speed="13.89" length="25.18" shape="314.85,610.31 336.81,622.32"/>
        <lane id=":3_8_1" index="1" disallow="tram rail_urban rail rail_electric rail_fast ship container cable_car subway aircraft wheelchair scooter drone" speed="13.89" length="25.18" shape="313.55,613.24 335.66,625.31"/>
        <lane id=":3_8_2" index="2" disallow="tram rail_urban rail rail_electric rail_fast ship container cable_car subway aircraft wheelchair scooter drone" speed="13.89" length="25.18" shape="312.26,616.17 334.50,628.29"/>
    </edge>
    <edge id=":3_11" function="internal">
        <lane id=":3_11_0" index="0" disallow="tram rail_urban rail rail_electric rail_fast ship container cable_car subway aircraft wheelchair scooter drone" speed="8.57" length="17.19" shape="310.97,619.10 315.62,621.79 318.34,624.89 319.12,628.40 317.96,632.33"/>
        <lane id=":3_11_1" index="1" disallow="tram rail_urban rail rail_electric rail_fast ship container cable_car subway aircraft wheelchair scooter drone" speed="7.21" length="11.84" shape="309.67,622.02 313.07,623.92 315.11,626.03 315.79,628.34 315.12,630.86"/>
        <lane id=":3_11_2" index="2" disallow="tram rail_urban rail rail_electric rail_fast ship container cable_car subway aircraft wheelchair scooter drone" speed="6.38" length="9.04" shape="309.67,622.02 311.79,623.35 312.93,625.02 313.09,627.03 312.27,629.39"/>
    </edge>
    <edge id=":3676346955_0" function="internal">
        <lane id=":3676346955_0_0" index="0" disallow="tram rail_urban rail rail_electric rail_fast ship container cable_car subway aircraft wheelchair scooter drone" speed="13.89" length="9.79" shape="540.85,239.99 544.11,240.08 546.46,239.59 548.69,239.47 551.55,240.60"/>
        <lane id=":3676346955_0_1" index="1" disallow="tram rail_urban rail rail_electric rail_fast ship container cable_car subway aircraft wheelchair scooter drone" speed="13.89" length="9.79" shape="540.32,243.15 543.23,243.17 545.34,242.62 547.34,242.38 549.90,243.34"/>
        <lane id=":3676346955_0_2" index="2" disallow="tram rail_urban rail rail_electric rail_fast ship container cable_car subway aircraft wheelchair scooter drone" speed="13.89" length="9.79" shape="540.32,243.15 542.81,243.60 544.49,244.06 546.07,244.80 548.25,246.09"/>
    </edge>
    <edge id=":4_0" function="internal">
        <lane id=":4_0_0" index="0" speed="9.11" length="19.95" shape="218.87,848.39 213.37,845.98 208.73,845.74 204.96,847.68 202.04,851.80"/>
    </edge>
    <edge id=":4_1" function="internal">
        <lane id=":4_1_0" index="0" speed="13.89" length="24.20" shape="218.87,848.39 212.43,845.68 207.46,845.22 202.44,844.85 195.85,842.43"/>
        <lane id=":4_1_1" index="1" speed="13.89" length="24.20" shape="220.50,845.63 214.02,842.91 209.02,842.42 203.97,842.04 197.34,839.60"/>
        <lane id=":4_1_2" index="2" speed="13.89" length="24.20" shape="222.13,842.87 215.61,840.13 210.58,839.63 205.50,839.23 198.83,836.77"/>
        <lane id=":4_1_3" index="3" speed="13.89" length="24.20" shape="223.75,840.12 217.19,837.35 212.14,836.83 207.04,836.42 200.32,833.93"/>
        <lane id=":4_1_4" index="4" speed="13.89" length="24.20" shape="225.38,837.36 218.78,834.57 213.70,834.04 208.57,833.61 201.81,831.10"/>
        <lane id=":4_1_5" index="5" speed="13.89" length="24.20" shape="225.38,837.36 219.08,834.16 214.44,832.63 209.76,831.18 203.30,828.27"/>
        <lane id=":4_1_6" index="6" speed="13.89" length="24.20" shape="225.38,837.36 204.79,825.44"/>
    </edge>
    <edge id=":4_8" function="internal">
        <lane id=":4_8_0" index="0" speed="12.29" length="35.14" shape="225.20,826.10 219.17,835.25 212.52,840.55 205.24,842.00 197.34,839.60"/>
    </edge>
    <edge id=":4_9" function="internal">
        <lane id=":4_9_0" index="0" speed="13.89" length="34.49" shape="222.35,824.64 216.51,833.97 210.90,840.49 205.94,845.87 202.04,851.80"/>
        <lane id=":4_9_1" index="1" speed="13.89" length="34.49" shape="222.35,824.64 215.98,833.90 209.39,839.93 203.48,844.76 199.15,850.42"/>
    </edge>
    <edge id=":4_11" function="internal">
        <lane id=":4_11_0" index="0" speed="12.00" length="33.42" shape="219.51,823.17 213.21,833.73 207.16,840.46 201.37,843.36 195.85,842.43"/>
        <lane id=":4_11_1" index="1" speed="10.95" length="27.64" shape="219.51,823.17 214.49,831.24 209.37,836.20 204.15,838.04 198.83,836.77"/>
        <lane id=":4_11_2" index="2" speed="9.93" length="22.55" shape="216.67,821.70 212.47,828.61 208.35,832.95 204.30,834.73 200.32,833.93"/>
        <lane id=":4_11_3" index="3" speed="8.81" length="17.53" shape="213.82,820.23 210.46,825.98 207.33,829.71 204.45,831.42 201.81,831.10"/>
        <lane id=":4_11_4" index="4" speed="8.08" length="14.60" shape="213.82,820.23 211.10,824.74 208.44,827.58 205.84,828.76 203.30,828.27"/>
        <lane id=":4_11_5" index="5" speed="7.31" length="11.74" shape="213.82,820.23 211.74,823.50 209.54,825.45 207.23,826.10 204.79,825.44"/>
    </edge>
    <edge id=":4_17" function="internal">
        <lane id=":4_17_0" index="0" allow="bus" speed="13.89" length="23.94" shape="206.28,822.61 227.00,834.61"/>
    </edge>
    <edge id=":5_0" function="internal">
        <lane id=":5_0_0" index="0" speed="10.66" length="19.20" shape="148.92,817.72 142.45,814.65 137.29,812.96 133.44,812.64 130.90,813.69"/>
    </edge>
    <edge id=":5_1" function="internal">
        <lane id=":5_1_0" index="0" allow="bus" speed="13.89" length="30.59" shape="150.41,814.89 141.63,809.19 135.13,803.44 130.27,798.71 126.45,796.04"/>
    </edge>
    <edge id=":5_2" function="internal">
        <lane id=":5_2_0" index="0" allow="passenger" speed="15.28" length="31.08" shape="151.90,812.06 144.31,806.89 139.90,802.05 135.51,797.36 127.96,792.63"/>
        <lane id=":5_2_1" index="1" allow="passenger" speed="15.28" length="31.08" shape="153.39,809.22 145.80,804.06 141.38,799.21 136.98,794.52 129.43,789.79"/>
        <lane id=":5_2_2" index="2" allow="passenger" speed="15.28" length="31.08" shape="154.88,806.39 147.28,801.22 142.86,796.37 138.46,791.68 130.91,786.95"/>
    </edge>
    <edge id=":5_5" function="internal">
        <lane id=":5_5_0" index="0" disallow="tram rail_urban rail rail_electric rail_fast ship container cable_car subway aircraft wheelchair scooter drone" speed="8.82" length="7.97" shape="156.37,803.56 153.42,801.15 152.05,797.87 152.08,797.27"/>
        <lane id=":5_5_1" index="1" disallow="tram rail_urban rail rail_electric rail_fast ship container cable_car subway aircraft wheelchair scooter drone" speed="7.45" length="2.45" shape="157.86,800.73 156.01,799.13"/>
    </edge>
    <edge id=":5_18" function="internal">
        <lane id=":5_18_0" index="0" disallow="tram rail_urban rail rail_electric rail_fast ship container cable_car subway aircraft wheelchair scooter drone" speed="8.82" length="8.91" shape="152.08,797.27 152.26,793.71 154.05,788.68"/>
        <lane id=":5_18_1" index="0" disallow="tram rail_urban rail rail_electric rail_fast ship container cable_car subway aircraft wheelchair scooter drone" speed="7.45" length="9.29" shape="156.01,799.13 155.22,796.85 155.51,793.88 156.86,790.22"/>
    </edge>
    <edge id=":5_7" function="internal">
        <lane id=":5_7_0" index="0" allow="bus bicycle" speed="8.80" length="17.39" shape="132.38,784.11 138.52,786.62 143.24,787.71 146.55,787.36 148.43,785.58"/>
    </edge>
    <edge id=":5_8" function="internal">
        <lane id=":5_8_0" index="0" allow="bus" speed="15.28" length="30.29" shape="132.38,784.11 159.35,797.90"/>
    </edge>
    <edge id=":5_9" function="internal">
        <lane id=":5_9_0" index="0" allow="bus bicycle" speed="11.17" length="6.92" shape="132.38,784.11 137.85,788.35"/>
    </edge>
    <edge id=":5_10" function="internal">
        <lane id=":5_10_0" index="0" allow="bus" speed="6.54" length="1.69" shape="132.38,784.11 133.23,785.58"/>
    </edge>
    <edge id=":5_19" function="internal">
        <lane id=":5_19_0" index="0" allow="bus bicycle" speed="11.17" length="30.17" shape="137.85,788.35 140.13,790.12 141.76,797.35 138.33,805.35 130.90,813.69"/>
    </edge>
    <edge id=":5_20" function="internal">
        <lane id=":5_20_0" index="0" allow="bus" speed="6.54" length="17.77" shape="133.23,785.58 135.37,789.32 135.38,793.04 132.40,795.28 126.45,796.04"/>
    </edge>
    <edge id=":5_11" function="internal">
        <lane id=":5_11_0" index="0" allow="bus" speed="6.81" length="13.64" shape="124.40,806.63 127.83,802.92 129.32,799.92 128.86,797.62 126.45,796.04"/>
    </edge>
    <edge id=":5_12" function="internal">
        <lane id=":5_12_0" index="0" allow="passenger" speed="7.83" length="17.52" shape="124.40,806.63 128.84,801.87 130.92,797.95 130.62,794.87 127.96,792.63"/>
    </edge>
    <edge id=":5_13" function="internal">
        <lane id=":5_13_0" index="0" disallow="tram rail_urban rail rail_electric rail_fast ship container cable_car subway aircraft wheelchair scooter drone" speed="13.89" length="34.16" shape="124.40,806.63 131.85,801.09 138.00,797.71 143.35,793.54 148.43,785.58"/>
        <lane id=":5_13_1" index="1" disallow="tram rail_urban rail rail_electric rail_fast ship container cable_car subway aircraft wheelchair scooter drone" speed="13.89" length="34.16" shape="126.57,808.98 134.09,803.38 140.40,799.84 145.97,795.40 151.24,787.13"/>
        <lane id=":5_13_2" index="2" disallow="tram rail_urban rail rail_electric rail_fast ship container cable_car subway aircraft wheelchair scooter drone" speed="13.89" length="34.16" shape="128.73,811.34 136.32,805.67 142.81,801.96 148.59,797.27 154.05,788.68"/>
        <lane id=":5_13_3" index="3" disallow="tram rail_urban rail rail_electric rail_fast ship container cable_car subway aircraft wheelchair scooter drone" speed="13.89" length="34.16" shape="128.73,811.34 136.73,805.99 144.12,802.93 150.85,798.80 156.86,790.22"/>
    </edge>
    <edge id=":5_17" function="internal">
        <lane id=":5_17_0" index="0" allow="bus" speed="13.89" length="35.14" shape="128.73,811.34 138.31,803.44 146.60,798.57 153.62,796.72 159.35,797.90"/>
    </edge>
    <edge id=":58993793_0" function="internal">
        <lane id=":58993793_0_0" index="0" disallow="tram rail_urban rail rail_electric rail_fast ship container cable_car subway aircraft wheelchair scooter drone" speed="11.11" length="18.44" shape="338.13,265.70 334.75,263.02 330.80,260.02 326.71,257.29 322.89,255.42"/>
    </edge>
    <edge id=":58993793_1" function="internal">
        <lane id=":58993793_1_0" index="0" disallow="tram rail_urban rail rail_electric rail_fast ship container cable_car subway aircraft wheelchair scooter drone" speed="13.89" length="18.44" shape="326.10,246.37 330.90,248.73 333.85,251.13 336.86,253.33 341.83,255.08"/>
        <lane id=":58993793_1_1" index="1" disallow="tram rail_urban rail rail_electric rail_fast ship container cable_car subway aircraft wheelchair scooter drone" speed="13.89" length="18.44" shape="325.03,249.39 329.91,251.77 332.92,254.19 335.99,256.41 341.05,258.19"/>
        <lane id=":58993793_1_2" index="2" disallow="tram rail_urban rail rail_electric rail_fast ship container cable_car subway aircraft wheelchair scooter drone" speed="13.89" length="18.44" shape="323.96,252.40 328.93,254.82 332.00,257.26 335.13,259.50 340.27,261.29"/>
    </edge>
    <edge id=":58993794_0" function="internal">
        <lane id=":58993794_0_0" index="0" disallow="tram rail_urban rail rail_electric rail_fast ship container cable_car subway aircraft wheelchair scooter drone" speed="12.50" length="12.00" shape="353.84,297.76 354.42,294.17 354.36,291.53 353.82,289.05 352.97,285.98"/>
    </edge>
    <edge id=":58993794_1" function="internal">
        <lane id=":58993794_1_0" index="0" disallow="tram rail_urban rail rail_electric rail_fast ship container cable_car subway aircraft wheelchair scooter drone" speed="16.67" length="7.48" shape="353.84,297.76 354.52,295.52 355.28,294.07 356.09,292.65 356.95,290.45"/>
        <lane id=":58993794_1_1" index="1" disallow="tram rail_urban rail rail_electric rail_fast ship container cable_car subway aircraft wheelchair scooter drone" speed="16.67" length="7.48" shape="356.97,298.46 357.64,296.29 358.38,294.90 359.17,293.52 360.00,291.39"/>
        <lane id=":58993794_1_2" index="2" disallow="tram rail_urban rail rail_electric rail_fast ship container cable_car subway aircraft wheelchair scooter drone" speed="16.67" length="7.48" shape="360.10,299.17 360.75,297.07 361.47,295.72 362.25,294.39 363.06,292.33"/>
        <lane id=":58993794_1_3" index="3" disallow="tram rail_urban rail rail_electric rail_fast ship container cable_car subway aircraft wheelchair scooter drone" speed="16.67" length="7.48" shape="363.23,299.87 363.86,297.84 364.57,296.54 365.33,295.26 366.12,293.28"/>
        <lane id=":58993794_1_4" index="4" disallow="tram rail_urban rail rail_electric rail_fast ship container cable_car subway aircraft wheelchair scooter drone" speed="16.67" length="7.48" shape="366.36,300.57 366.97,298.61 367.67,297.37 368.41,296.14 369.18,294.22"/>
    </edge>
    <edge id=":6_0" function="internal">
        <lane id=":6_0_0" index="0" disallow="tram rail_urban rail rail_electric rail_fast ship container cable_car subway aircraft wheelchair scooter drone" speed="6.96" length="10.63" shape="236.34,577.85 238.82,578.42 241.01,577.85 242.88,576.12 244.46,573.26"/>
        <lane id=":6_0_1" index="1" disallow="tram rail_urban rail rail_electric rail_fast ship container cable_car subway aircraft wheelchair scooter drone" speed="7.67" length="13.12" shape="236.34,577.85 240.11,578.98 243.20,578.82 245.62,577.36 247.37,574.61"/>
    </edge>
    <edge id=":6_2" function="internal">
        <lane id=":6_2_0" index="0" disallow="tram rail_urban rail rail_electric rail_fast ship container cable_car subway aircraft wheelchair scooter drone" speed="13.89" length="20.87" shape="236.34,577.85 256.09,584.56"/>
        <lane id=":6_2_1" index="1" disallow="tram rail_urban rail rail_electric rail_fast ship container cable_car subway aircraft wheelchair scooter drone" speed="13.89" length="20.87" shape="235.08,580.79 254.83,587.50"/>
        <lane id=":6_2_2" index="2" disallow="tram rail_urban rail rail_electric rail_fast ship container cable_car subway aircraft wheelchair scooter drone" speed="13.89" length="20.87" shape="233.81,583.73 253.58,590.45"/>
        <lane id=":6_2_3" index="3" disallow="tram rail_urban rail rail_electric rail_fast ship container cable_car subway aircraft wheelchair scooter drone" speed="13.89" length="20.87" shape="232.55,586.67 252.32,593.39"/>
        <lane id=":6_2_4" index="4" disallow="tram rail_urban rail rail_electric rail_fast ship container cable_car subway aircraft wheelchair scooter drone" speed="13.89" length="20.87" shape="232.55,586.67 251.07,596.34"/>
    </edge>
    <edge id=":6_7" function="internal">
        <lane id=":6_7_0" index="0" disallow="tram rail_urban rail rail_electric rail_fast ship container cable_car subway aircraft wheelchair scooter drone" speed="13.89" length="23.90" shape="234.81,595.24 244.46,573.26"/>
        <lane id=":6_7_1" index="1" disallow="tram rail_urban rail rail_electric rail_fast ship container cable_car subway aircraft wheelchair scooter drone" speed="13.89" length="23.90" shape="237.74,596.53 247.37,574.61"/>
        <lane id=":6_7_2" index="2" disallow="tram rail_urban rail rail_electric rail_fast ship container cable_car subway aircraft wheelchair scooter drone" speed="13.89" length="23.90" shape="240.67,597.81 250.27,575.95"/>
        <lane id=":6_7_3" index="3" disallow="tram rail_urban rail rail_electric rail_fast ship container cable_car subway aircraft wheelchair scooter drone" speed="13.89" length="23.90" shape="243.60,599.10 253.17,577.30"/>
    </edge>
    <edge id=":6_11" function="internal">
        <lane id=":6_11_0" index="0" disallow="tram rail_urban rail rail_electric rail_fast ship container cable_car subway aircraft wheelchair scooter drone" speed="9.52" length="20.41" shape="243.60,599.10 247.12,591.91 250.37,587.09 253.36,584.64 256.09,584.56"/>