<?xml version="1.0" encoding="UTF-8"?>

<!-- generated on 2025-12-09 20:49:18.687265 by Eclipse SUMO randomTrips.py v1_25_0+0000-ac6c5a6752d
<configuration>
    <net-file value="IntersectieIRE.net.xml"/>
    <output-trip-file value="car_trips.xml"/>
    <route-file value="car_routes.rou.xml"/>
    <vtype-output value="car"/>
    <prefix value="car_"/>
    <fringe-factor value="50"/>
    <edge-permission value="passenger"/>
    <min-distance value="50.0"/>
    <period value="1.5"/>
</configuration>
-->

<routes xmlns:xsi="http://www.w3.org/2001/XMLSchema-instance" xsi:noNamespaceSchemaLocation="http://sumo.dlr.de/xsd/routes_file.xsd">
    <trip id="car_0" depart="0.00" from="-E3" to="E1"/>
    <trip id="car_1" depart="1.50" from="E0" to="E5"/>
    <trip id="car_2" depart="3.00" from="S_P2_UPSTREAM" to="-E0"/>
    <trip id="car_3" depart="4.50" from="-E4" to="-E0"/>
    <trip id="car_4" depart="6.00" from="-E2" to="E4"/>
    <trip id="car_5" depart="7.50" from="E0" to="E4"/>
    <trip id="car_6" depart="9.00" from="-E2" to="E4"/>
    <trip id="car_7" depart="10.50" from="N_P2_Upstream" to="-E0"/>
    <trip id="car_8" depart="12.00" from="N_P2_Upstream" to="E5"/>
    <trip id="car_9" depart="13.50" from="-E3" to="E1"/>
    <trip id="car_10" depart="15.00" from="S_P2_UPSTREAM" to="E2"/>
    <trip id="car_11" depart="16.50" from="-E1" to="-E0"/>
    <trip id="car_12" depart="18.00" from="N_P2_Upstream" to="E4"/>
    <trip id="car_13" depart="19.50" from="N_P2_Upstream" to="E5"/>
    <trip id="car_14" depart="21.00" from="-E6" to="N_P1_Upstream"/>
    <trip id="car_15" depart="22.50" from="N_P2_Upstream" to="E5"/>
    <trip id="car_16" depart="24.00" from="N_P2_Upstream" to="E4"/>
    <trip id="car_17" depart="25.50" from="-E1" to="E2"/>
    <trip id="car_18" depart="27.00" from="E0" to="E2"/>
    <trip id="car_19" depart="28.50" from="-E4" to="E1"/>
    <trip id="car_20" depart="30.00" from="-E3" to="N_P1_Upstream"/>
    <trip id="car_21" depart="31.50" from="E0" to="E4"/>
    <trip id="car_22" depart="33.00" from="-E2" to="E5"/>
    <trip id="car_23" depart="34.50" from="-E2" to="E3"/>
    <trip id="car_24" depart="36.00" from="-E6" to="E5"/>
    <trip id="car_25" depart="37.50" from="N_P2_Upstream" to="E6"/>
    <trip id="car_26" depart="39.00" from="-E2" to="-E0"/>
    <trip id="car_27" depart="40.50" from="-E3" to="E2"/>
    <trip id="car_28" depart="42.00" from="-E2" to="N_P1_Upstream"/>
    <trip id="car_29" depart="43.50" from="S_P2_UPSTREAM" to="E2"/>
    <trip id="car_30" depart="45.00" from="E0" to="E3"/>
    <trip id="car_31" depart="46.50" from="S_P2_UPSTREAM" to="E3"/>
    <trip id="car_32" depart="48.00" from="-E3" to="E2"/>
    <trip id="car_33" depart="49.50" from="-E6" to="E2"/>
    <trip id="car_34" depart="51.00" from="-E6" to="N_P1_Upstream"/>
    <trip id="car_35" depart="52.50" from="-E4" to="E1"/>
    <trip id="car_36" depart="54.00" from="W_P0_UPSTREAM" to="E4"/>
    <trip id="car_37" depart="55.50" from="-E1" to="-E0"/>
    <trip id="car_38" depart="57.00" from="-E1" to="E5"/>
    <trip id="car_39" depart="58.50" from="N_P2_Upstream" to="E3"/>
    <trip id="car_40" depart="60.00" from="-E1" to="E3"/>
    <trip id="car_41" depart="61.50" from="W_P0P2_Downstream_E_P0P1_Upstream" to="E4"/>
    <trip id="car_42" depart="63.00" from="S_P2_UPSTREAM" to="E6"/>
    <trip id="car_43" depart="64.50" from="-E1" to="E5"/>
    <trip id="car_44" depart="66.00" from="E0" to="E4"/>
    <trip id="car_45" depart="67.50" from="-E3" to="E5"/>
    <trip id="car_46" depart="69.00" from="-E1" to="E3"/>
    <trip id="car_47" depart="70.50" from="-E4" to="N_P1_Upstream"/>
    <trip id="car_48" depart="72.00" from="S_P2_UPSTREAM" to="E2"/>
    <trip id="car_49" depart="73.50" from="-E6" to="E1"/>
    <trip id="car_50" depart="75.00" from="S_P2_UPSTREAM" to="N_P1_Upstream"/>
    <trip id="car_51" depart="76.50" from="-E3" to="E5"/>
    <trip id="car_52" depart="78.00" from="-E6" to="E1"/>
    <trip id="car_53" depart="79.50" from="N_P2_Upstream" to="E4"/>
    <trip id="car_54" depart="81.00" from="N_P2_Upstream" to="E4"/>
    <trip id="car_55" depart="82.50" from="-E1" to="E2"/>
    <trip id="car_56" depart="84.00" from="-E1" to="N_P1_Upstream"/>
    <trip id="car_57" depart="85.50" from="S_P2_UPSTREAM" to="E6"/>
    <trip id="car_58" depart="87.00" from="-E3" to="-E0"/>
    <trip id="car_59" depart="88.50" from="S_P2_UPSTREAM" to="N_P1_Upstream"/>
    <trip id="car_60" depart="90.00" from="-E1" to="E3"/>
    <trip id="car_61" depart="91.50" from="-E1" to="E6"/>
    <trip id="car_62" depart="93.00" from="N_P2_Upstream" to="E1"/>
    <trip id="car_63" depart="94.50" from="-E3" to="N_P1_Upstream"/>
    <trip id="car_64" depart="96.00" from="-E4" to="E1"/>
    <trip id="car_65" depart="97.50" from="-E6" to="E5"/>
    <trip id="car_66" depart="99.00" from="-E3" to="E4"/>
    <trip id="car_67" depart="100.50" from="-E2" to="E1"/>
    <trip id="car_68" depart="102.00" from="-E1" to="E5"/>
    <trip id="car_69" depart="103.50" from="-E2" to="N_P1_Upstream"/>
    <trip id="car_70" depart="105.00" from="N_P2_Upstream" to="-E0"/>
    <trip id="car_71" depart="106.50" from="-E2" to="E5"/>
    <trip id="car_72" depart="108.00" from="-E2" to="E1"/>
    <trip id="car_73" depart="109.50" from="S_P2_UPSTREAM" to="E4"/>
    <trip id="car_74" depart="111.00" from="-E4" to="E6"/>
    <trip id="car_75" depart="112.50" from="N_P2_Upstream" to="E1"/>
    <trip id="car_76" depart="114.00" from="-E1" to="E3"/>
    <trip id="car_77" depart="115.50" from="-E4" to="E3"/>
    <trip id="car_78" depart="117.00" from="E0" to="E5"/>
    <trip id="car_79" depart="118.50" from="S_P2_UPSTREAM" to="-E0"/>
    <trip id="car_80" depart="120.00" from="-E4" to="E2"/>
    <trip id="car_81" depart="121.50" from="N_P2_Upstream" to="E2"/>
    <trip id="car_82" depart="123.00" from="-E2" to="E3"/>
    <trip id="car_83" depart="124.50" from="-E4" to="E2"/>
    <trip id="car_84" depart="126.00" from="-E3" to="N_P1_Upstream"/>
    <trip id="car_85" depart="127.50" from="-E4" to="E6"/>
    <trip id="car_86" depart="129.00" from="-E6" to="-E0"/>
    <trip id="car_87" depart="130.50" from="W_P0_UPSTREAM" to="E6"/>
    <trip id="car_88" depart="132.00" from="S_P2_UPSTREAM" to="N_P1_Upstream"/>
    <trip id="car_89" depart="133.50" from="N_P2_Upstream" to="E1"/>
    <trip id="car_90" depart="135.00" from="-E4" to="E1"/>
    <trip id="car_91" depart="136.50" from="-E4" to="-E0"/>
    <trip id="car_92" depart="138.00" from="-E4" to="N_P1_Upstream"/>
    <trip id="car_93" depart="139.50" from="-E3" to="E6"/>
    <trip id="car_94" depart="141.00" from="-E4" to="E3"/>
    <trip id="car_95" depart="142.50" from="S_P2_UPSTREAM" to="W_P0P2_Downstream_E_P0P1_Upstream"/>
    <trip id="car_96" depart="144.00" from="-E6" to="E5"/>
    <trip id="car_97" depart="145.50" from="S_P2_UPSTREAM" to="E4"/>
    <trip id="car_98" depart="147.00" from="-E1" to="E4"/>
    <trip id="car_99" depart="148.50" from="-E2" to="N_P1_Upstream"/>
    <trip id="car_100" depart="150.00" from="-E6" to="E5"/>
    <trip id="car_101" depart="151.50" from="-E2" to="-E0"/>
    <trip id="car_102" depart="153.00" from="S_P2_UPSTREAM" to="E1"/>
    <trip id="car_103" depart="154.50" from="-E6" to="E5"/>
    <trip id="car_104" depart="156.00" from="-E6" to="N_P1_Upstream"/>
    <trip id="car_105" depart="157.50" from="-E2" to="E5"/>
    <trip id="car_106" depart="159.00" from="-E2" to="E3"/>
    <trip id="car_107" depart="160.50" from="E0" to="E2"/>
    <trip id="car_108" depart="162.00" from="-E3" to="E6"/>
    <trip id="car_109" depart="163.50" from="-E1" to="E3"/>
    <trip id="car_110" depart="165.00" from="W_P0_UPSTREAM" to="W_P0P2_Downstream_E_P0P1_Upstream"/>
    <trip id="car_111" depart="166.50" from="-E3" to="N_P1_Upstream"/>
    <trip id="car_112" depart="168.00" from="S_P2_UPSTREAM" to="N_P1_Upstream"/>
    <trip id="car_113" depart="169.50" from="-E4" to="E1"/>
    <trip id="car_114" depart="171.00" from="N_P2_Upstream" to="E5"/>
    <trip id="car_115" depart="172.50" from="-E6" to="N_P1_Upstream"/>
    <trip id="car_116" depart="174.00" from="N_P2_Upstream" to="E2"/>
    <trip id="car_117" depart="175.50" from="E0" to="N_P1_Upstream"/>
    <trip id="car_118" depart="177.00" from="-E2" to="-E0"/>
    <trip id="car_119" depart="178.50" from="-E1" to="E4"/>
    <trip id="car_120" depart="180.00" from="-E3" to="E4"/>
    <trip id="car_121" depart="181.50" from="E0" to="E1"/>
    <trip id="car_122" depart="183.00" from="E0" to="E2"/>
    <trip id="car_123" depart="184.50" from="-E4" to="N_P1_Upstream"/>
    <trip id="car_124" depart="186.00" from="N_P2_Upstream" to="-E0"/>
    <trip id="car_125" depart="187.50" from="-E4" to="E2"/>
    <trip id="car_126" depart="189.00" from="-E1" to="E6"/>
    <trip id="car_127" depart="190.50" from="E0" to="E2"/>
    <trip id="car_128" depart="192.00" from="E_P0P2_Downstream" to="E4"/>
    <trip id="car_129" depart="193.50" from="-E4" to="-E0"/>
    <trip id="car_130" depart="195.00" from="-E1" to="N_P1_Upstream"/>
    <trip id="car_131" depart="196.50" from="S_P2_UPSTREAM" to="E4"/>
    <trip id="car_132" depart="198.00" from="N_P2_Upstream" to="E4"/>
    <trip id="car_133" depart="199.50" from="-E2" to="E1"/>
    <trip id="car_134" depart="201.00" from="-E3" to="N_P1_Upstream"/>
    <trip id="car_135" depart="202.50" from="N_P2_Upstream" to="E6"/>
    <trip id="car_136" depart="204.00" from="S_P2_UPSTREAM" to="E1"/>
    <trip id="car_137" depart="205.50" from="-E3" to="-E0"/>
    <trip id="car_138" depart="207.00" from="-E4" to="E5"/>
    <trip id="car_139" depart="208.50" from="-E2" to="N_P1_Upstream"/>
    <trip id="car_140" depart="210.00" from="-E1" to="E5"/>
    <trip id="car_141" depart="211.50" from="-E3" to="N_P1_Upstream"/>
    <trip id="car_142" depart="213.00" from="N_P2_Upstream" to="E_P0P2_Downstream"/>
    <trip id="car_143" depart="214.50" from="N_P2_Upstream" to="E2"/>
    <trip id="car_144" depart="216.00" from="N_P2_Upstream" to="-E0"/>
    <trip id="car_145" depart="217.50" from="S_P2_UPSTREAM" to="E6"/>
    <trip id="car_146" depart="219.00" from="-E2" to="E6"/>
    <trip id="car_147" depart="220.50" from="-E4" to="E2"/>
    <trip id="car_148" depart="222.00" from="N_P2_Upstream" to="E1"/>
    <trip id="car_149" depart="223.50" from="S_P2_UPSTREAM" to="E2"/>
    <trip id="car_150" depart="225.00" from="E0" to="E3"/>
    <trip id="car_151" depart="226.50" from="S_P2_UPSTREAM" to="E4"/>
    <trip id="car_152" depart="228.00" from="S_P2_UPSTREAM" to="-E0"/>
    <trip id="car_153" depart="229.50" from="S_P2_UPSTREAM" to="E1"/>
    <trip id="car_154" depart="231.00" from="S_P2_UPSTREAM" to="E2"/>
    <trip id="car_155" depart="232.50" from="-E1" to="E3"/>
    <trip id="car_156" depart="234.00" from="E0" to="E2"/>
    <trip id="car_157" depart="235.50" from="-E6" to="E4"/>
    <trip id="car_158" depart="237.00" from="-E3" to="E5"/>
    <trip id="car_159" depart="238.50" from="-E1" to="N_P1_Upstream"/>
    <trip id="car_160" depart="240.00" from="-E6" to="E5"/>
    <trip id="car_161" depart="241.50" from="E_P0_Upstream" to="E5"/>
    <trip id="car_162" depart="243.00" from="-E3" to="-E0"/>
    <trip id="car_163" depart="244.50" from="E0" to="E2"/>
    <trip id="car_164" depart="246.00" from="-E3" to="E6"/>
    <trip id="car_165" depart="247.50" from="E0" to="E2"/>
    <trip id="car_166" depart="249.00" from="-E4" to="E2"/>
    <trip id="car_167" depart="250.50" from="-E2" to="E3"/>
    <trip id="car_168" depart="252.00" from="S_P2_UPSTREAM" to="E4"/>
    <trip id="car_169" depart="253.50" from="-E3" to="E4"/>
    <trip id="car_170" depart="255.00" from="-E1" to="E2"/>
    <trip id="car_171" depart="256.50" from="E0" to="E3"/>
    <trip id="car_172" depart="258.00" from="-E4" to="E1"/>
    <trip id="car_173" depart="259.50" from="-E4" to="N_P1_Upstream"/>
    <trip id="car_174" depart="261.00" from="N_P2_Upstream" to="E1"/>
    <trip id="car_175" depart="262.50" from="-E1" to="E4"/>
    <trip id="car_176" depart="264.00" from="E0" to="E2"/>
    <trip id="car_177" depart="265.50" from="N_P2_Upstream" to="E6"/>
    <trip id="car_178" depart="267.00" from="E0" to="E1"/>
    <trip id="car_179" depart="268.50" from="-E2" to="-E0"/>
    <trip id="car_180" depart="270.00" from="-E2" to="E3"/>
    <trip id="car_181" depart="271.50" from="N_P2_Upstream" to="-E0"/>
    <trip id="car_182" depart="273.00" from="-E4" to="E5"/>
    <trip id="car_183" depart="274.50" from="-E2" to="E5"/>
    <trip id="car_184" depart="276.00" from="-E6" to="E1"/>
    <trip id="car_185" depart="277.50" from="N_P2_Upstream" to="E6"/>
    <trip id="car_186" depart="279.00" from="-E1" to="E3"/>
    <trip id="car_187" depart="280.50" from="-E2" to="N_P1_Upstream"/>
    <trip id="car_188" depart="282.00" from="-E6" to="-E0"/>
    <trip id="car_189" depart="283.50" from="-E3" to="E6"/>
    <trip id="car_190" depart="285.00" from="-E4" to="E6"/>
    <trip id="car_191" depart="286.50" from="E0" to="N_P1_Upstream"/>
    <trip id="car_192" depart="288.00" from="-E6" to="N_P1_Upstream"/>
    <trip id="car_193" depart="289.50" from="S_P2_UPSTREAM" to="E4"/>
    <trip id="car_194" depart="291.00" from="E0" to="E4"/>
    <trip id="car_195" depart="292.50" from="N_P2_Upstream" to="E4"/>
    <trip id="car_196" depart="294.00" from="S_P2_UPSTREAM" to="E6"/>
    <trip id="car_197" depart="295.50" from="-E4" to="E2"/>
    <trip id="car_198" depart="297.00" from="-E3" to="E5"/>
    <trip id="car_199" depart="298.50" from="N_P2_Upstream" to="E4"/>
    <trip id="car_200" depart="300.00" from="E0" to="E2"/>
    <trip id="car_201" depart="301.50" from="-E1" to="E2"/>
    <trip id="car_202" depart="303.00" from="-E3" to="E2"/>
    <trip id="car_203" depart="304.50" from="-E6" to="E1"/>
    <trip id="car_204" depart="306.00" from="-E2" to="E5"/>
    <trip id="car_205" depart="307.50" from="-E4" to="E1"/>
    <trip id="car_206" depart="309.00" from="-E4" to="N_P1_Upstream"/>
    <trip id="car_207" depart="310.50" from="-E6" to="E5"/>
    <trip id="car_208" depart="312.00" from="N_P2_Upstream" to="E6"/>
    <trip id="car_209" depart="313.50" from="-E4" to="-E0"/>
    <trip id="car_210" depart="315.00" from="-E3" to="E6"/>
    <trip id="car_211" depart="316.50" from="-E4" to="E6"/>
    <trip id="car_212" depart="318.00" from="-E6" to="E4"/>
    <trip id="car_213" depart="319.50" from="-E2" to="E1"/>
    <trip id="car_214" depart="321.00" from="-E4" to="-E0"/>
    <trip id="car_215" depart="322.50" from="-E3" to="E5"/>
    <trip id="car_216" depart="324.00" from="-E4" to="E1"/>
    <trip id="car_217" depart="325.50" from="-E4" to="E1"/>
    <trip id="car_218" depart="327.00" from="-E1" to="E5"/>
    <trip id="car_219" depart="328.50" from="-E2" to="E3"/>
    <trip id="car_220" depart="330.00" from="-E1" to="E3"/>
    <trip id="car_221" depart="331.50" from="N_P2_Upstream" to="E3"/>
    <trip id="car_222" depart="333.00" from="N_P2_Upstream" to="E6"/>
    <trip id="car_223" depart="334.50" from="-E3" to="-E0"/>
    <trip id="car_224" depart="336.00" from="-E1" to="E4"/>
    <trip id="car_225" depart="337.50" from="E0" to="E6"/>
    <trip id="car_226" depart="339.00" from="E0" to="E6"/>
    <trip id="car_227" depart="340.50" from="S_P2_UPSTREAM" to="E1"/>
    <trip id="car_228" depart="342.00" from="-E2" to="E5"/>
    <trip id="car_229" depart="343.50" from="-E6" to="E1"/>
    <trip id="car_230" depart="345.00" from="E0" to="E6"/>
    <trip id="car_231" depart="346.50" from="-E2" to="E4"/>
    <trip id="car_232" depart="348.00" from="N_P2_Upstream" to="-E0"/>
    <trip id="car_233" depart="349.50" from="-E1" to="-E0"/>
    <trip id="car_234" depart="351.00" from="-E3" to="E5"/>
    <trip id="car_235" depart="352.50" from="S_P2_UPSTREAM" to="E3"/>
    <trip id="car_236" depart="354.00" from="E0" to="E5"/>
    <trip id="car_237" depart="355.50" from="-E1" to="E6"/>
    <trip id="car_238" depart="357.00" from="N_P2_Upstream" to="E4"/>
    <trip id="car_239" depart="358.50" from="-E1" to="N_P1_Upstream"/>
    <trip id="car_240" depart="360.00" from="N_P2_Upstream" to="E2"/>
    <trip id="car_241" depart="361.50" from="-E4" to="E3"/>
    <trip id="car_242" depart="363.00" from="-E6" to="E2"/>
    <trip id="car_243" depart="364.50" from="N_P2_Upstream" to="E6"/>
    <trip id="car_244" depart="366.00" from="-E1" to="N_P1_Upstream"/>
    <trip id="car_245" depart="367.50" from="E0" to="E6"/>
    <trip id="car_246" depart="369.00" from="E0" to="E3"/>
    <trip id="car_247" depart="370.50" from="E0" to="N_P1_Upstream"/>
    <trip id="car_248" depart="372.00" from="-E3" to="E6"/>
    <trip id="car_249" depart="373.50" from="-E6" to="E3"/>
    <trip id="car_250" depart="375.00" from="-E4" to="E5"/>
    <trip id="car_251" depart="376.50" from="-E3" to="E6"/>
    <trip id="car_252" depart="378.00" from="N_P2_Upstream" to="-E0"/>
    <trip id="car_253" depart="379.50" from="S_P2_UPSTREAM" to="E1"/>
    <trip id="car_254" depart="381.00" from="-E4" to="-E0"/>
    <trip id="car_255" depart="382.50" from="N_P2_Upstream" to="E1"/>
    <trip id="car_256" depart="384.00" from="-E2" to="E6"/>
    <trip id="car_257" depart="385.50" from="-E3" to="N_P1_Upstream"/>
    <trip id="car_258" depart="387.00" from="E0" to="E2"/>
    <trip id="car_259" depart="388.50" from="-E1" to="N_P1_Upstream"/>
    <trip id="car_260" depart="390.00" from="-E1" to="E5"/>
    <trip id="car_261" depart="391.50" from="-E4" to="E6"/>
    <trip id="car_262" depart="393.00" from="E0" to="E5"/>
    <trip id="car_263" depart="394.50" from="-E4" to="E6"/>
    <trip id="car_264" depart="396.00" from="E0" to="E2"/>
    <trip id="car_265" depart="397.50" from="-E6" to="E3"/>
    <trip id="car_266" depart="399.00" from="-E6" to="E3"/>
    <trip id="car_267" depart="400.50" from="N_P2_Upstream" to="E2"/>
    <trip id="car_268" depart="402.00" from="E0" to="E2"/>
    <trip id="car_269" depart="403.50" from="-E3" to="-E0"/>
    <trip id="car_270" depart="405.00" from="-E2" to="-E0"/>
    <trip id="car_271" depart="406.50" from="-E2" to="E1"/>
    <trip id="car_272" depart="408.00" from="-E4" to="E5"/>
    <trip id="car_273" depart="409.50" from="S_P2_UPSTREAM" to="E4"/>
    <trip id="car_274" depart="411.00" from="-E3" to="-E0"/>
    <trip id="car_275" depart="412.50" from="-E2" to="E1"/>
    <trip id="car_276" depart="414.00" from="-E2" to="-E0"/>
    <trip id="car_277" depart="415.50" from="-E6" to="E2"/>
    <trip id="car_278" depart="417.00" from="S_P2_UPSTREAM" to="E4"/>
    <trip id="car_279" depart="418.50" from="E0" to="E1"/>
    <trip id="car_280" depart="420.00" from="S_P2_UPSTREAM" to="E3"/>
    <trip id="car_281" depart="421.50" from="S_P2_UPSTREAM" to="E4"/>
    <trip id="car_282" depart="423.00" from="-E4" to="E3"/>
    <trip id="car_283" depart="424.50" from="-E2" to="-E0"/>
    <trip id="car_284" depart="426.00" from="S_P2_UPSTREAM" to="E3"/>
    <trip id="car_285" depart="427.50" from="N_P2_Upstream" to="E3"/>
    <trip id="car_286" depart="429.00" from="-E1" to="E5"/>
    <trip id="car_287" depart="430.50" from="-E6" to="E2"/>
    <trip id="car_288" depart="432.00" from="W_P0P1_Upstream_E_P0P2_Downstream" to="-E0"/>
    <trip id="car_289" depart="433.50" from="N_P2_Upstream" to="E4"/>
    <trip id="car_290" depart="435.00" from="N_P2_Upstream" to="E1"/>
    <trip id="car_291" depart="436.50" from="-E6" to="E3"/>
    <trip id="car_292" depart="438.00" from="-E4" to="E6"/>
    <trip id="car_293" depart="439.50" from="S_P2_UPSTREAM" to="E2"/>
    <trip id="car_294" depart="441.00" from="E0" to="E4"/>
    <trip id="car_295" depart="442.50" from="-E2" to="E1"/>
    <trip id="car_296" depart="444.00" from="E0" to="E1"/>
    <trip id="car_297" depart="445.50" from="-E2" to="-E0"/>
    <trip id="car_298" depart="447.00" from="-E1" to="E3"/>
    <trip id="car_299" depart="448.50" from="-E6" to="E2"/>
    <trip id="car_300" depart="450.00" from="-E2" to="E5"/>
    <trip id="car_301" depart="451.50" from="E0" to="E3"/>
    <trip id="car_302" depart="453.00" from="E0" to="N_P1_Upstream"/>
    <trip id="car_303" depart="454.50" from="N_P2_Upstream" to="E5"/>
    <trip id="car_304" depart="456.00" from="E0" to="N_P1_Upstream"/>
    <trip id="car_305" depart="457.50" from="E0" to="N_P1_Upstream"/>
    <trip id="car_306" depart="459.00" from="N_P2_Upstream" to="-E0"/>
    <trip id="car_307" depart="460.50" from="N_P2_Upstream" to="E4"/>
    <trip id="car_308" depart="462.00" from="-E3" to="E1"/>
    <trip id="car_309" depart="463.50" from="E0" to="E5"/>
    <trip id="car_310" depart="465.00" from="S_P2_UPSTREAM" to="E4"/>
    <trip id="car_311" depart="466.50" from="-E6" to="-E0"/>
    <trip id="car_312" depart="468.00" from="-E1" to="E3"/>
    <trip id="car_313" depart="469.50" from="-E3" to="E2"/>
    <trip id="car_314" depart="471.00" from="-E1" to="N_P1_Upstream"/>
    <trip id="car_315" depart="472.50" from="N_P2_Upstream" to="E4"/>
    <trip id="car_316" depart="474.00" from="E0" to="E2"/>
    <trip id="car_317" depart="475.50" from="-E1" to="E6"/>
    <trip id="car_318" depart="477.00" from="-E4" to="E5"/>
    <trip id="car_319" depart="478.50" from="S_P2_UPSTREAM" to="E1"/>
    <trip id="car_320" depart="480.00" from="-E6" to="E5"/>
    <trip id="car_321" depart="481.50" from="-E4" to="-E0"/>
    <trip id="car_322" depart="483.00" from="-E3" to="E2"/>
    <trip id="car_323" depart="484.50" from="E0" to="E6"/>
    <trip id="car_324" depart="486.00" from="-E3" to="E5"/>
    <trip id="car_325" depart="487.50" from="-E3" to="N_P1_Upstream"/>
    <trip id="car_326" depart="489.00" from="N_P2_Upstream" to="E4"/>
    <trip id="car_327" depart="490.50" from="-E4" to="E2"/>
    <trip id="car_328" depart="492.00" from="-E3" to="N_P1_Upstream"/>
    <trip id="car_329" depart="493.50" from="-E6" to="E3"/>
    <trip id="car_330" depart="495.00" from="N_P2_Upstream" to="E5"/>
    <trip id="car_331" depart="496.50" from="N_P2_Upstream" to="E1"/>
    <trip id="car_332" depart="498.00" from="-E6" to="N_P1_Upstream"/>
    <trip id="car_333" depart="499.50" from="-E4" to="E5"/>
    <trip id="car_334" depart="501.00" from="-E1" to="N_P1_Upstream"/>
    <trip id="car_335" depart="502.50" from="-E6" to="E1"/>
    <trip id="car_336" depart="504.00" from="-E2" to="E4"/>
    <trip id="car_337" depart="505.50" from="-E6" to="-E0"/>
    <trip id="car_338" depart="507.00" from="-E4" to="-E0"/>
    <trip id="car_339" depart="508.50" from="N_P2_Upstream" to="E4"/>
    <trip id="car_340" depart="510.00" from="E0" to="E4"/>
    <trip id="car_341" depart="511.50" from="-E3" to="E6"/>
    <trip id="car_342" depart="513.00" from="S_P2_UPSTREAM" to="E1"/>
    <trip id="car_343" depart="514.50" from="-E6" to="E3"/>
    <trip id="car_344" depart="516.00" from="S_P2_UPSTREAM" to="E4"/>
    <trip id="car_345" depart="517.50" from="S_P2_UPSTREAM" to="E_P0P2_Downstream"/>
    <trip id="car_346" depart="519.00" from="-E3" to="E6"/>
    <trip id="car_347" depart="520.50" from="-E4" to="N_P1_Upstream"/>
    <trip id="car_348" depart="522.00" from="-E3" to="E2"/>
    <trip id="car_349" depart="523.50" from="-E4" to="E1"/>
    <trip id="car_350" depart="525.00" from="-E6" to="E2"/>
    <trip id="car_351" depart="526.50" from="-E6" to="E4"/>
    <trip id="car_352" depart="528.00" from="-E4" to="E2"/>
    <trip id="car_353" depart="529.50" from="-E2" to="E5"/>
    <trip id="car_354" depart="531.00" from="-E6" to="E1"/>
    <trip id="car_355" depart="532.50" from="N_P2_Upstream" to="-E0"/>
    <trip id="car_356" depart="534.00" from="N_P2_Upstream" to="E5"/>
    <trip id="car_357" depart="535.50" from="N_P2_Upstream" to="E3"/>
    <trip id="car_358" depart="537.00" from="E0" to="E6"/>
    <trip id="car_359" depart="538.50" from="S_P2_UPSTREAM" to="E4"/>
    <trip id="car_360" depart="540.00" from="-E1" to="E4"/>
    <trip id="car_361" depart="541.50" from="-E6" to="N_P1_Upstream"/>
    <trip id="car_362" depart="543.00" from="S_P2_UPSTREAM" to="E3"/>
    <trip id="car_363" depart="544.50" from="-E6" to="E3"/>
    <trip id="car_364" depart="546.00" from="E0" to="E3"/>
    <trip id="car_365" depart="547.50" from="E0" to="E1"/>
    <trip id="car_366" depart="549.00" from="-E4" to="N_P1_Upstream"/>
    <trip id="car_367" depart="550.50" from="-E3" to="E5"/>
    <trip id="car_368" depart="552.00" from="E0" to="E6"/>
    <trip id="car_369" depart="553.50" from="N_P2_Upstream" to="E6"/>
    <trip id="car_370" depart="555.00" from="-E4" to="E2"/>
    <trip id="car_371" depart="556.50" from="E0" to="E6"/>
    <trip id="car_372" depart="558.00" from="S_P2_UPSTREAM" to="-E0"/>
    <trip id="car_373" depart="559.50" from="-E1" to="E5"/>
    <trip id="car_374" depart="561.00" from="S_P2_UPSTREAM" to="W_P0P2_Downstream_E_P0P1_Upstream"/>
    <trip id="car_375" depart="562.50" from="N_P2_Upstream" to="E3"/>
    <trip id="car_376" depart="564.00" from="-E1" to="E5"/>
    <trip id="car_377" depart="565.50" from="S_P2_UPSTREAM" to="E3"/>
    <trip id="car_378" depart="567.00" from="E0" to="N_P1_Upstream"/>
    <trip id="car_379" depart="568.50" from="-E1" to="E6"/>
    <trip id="car_380" depart="570.00" from="-E2" to="E4"/>
    <trip id="car_381" depart="571.50" from="-E2" to="-E0"/>
    <trip id="car_382" depart="573.00" from="-E2" to="N_P1_Upstream"/>
    <trip id="car_383" depart="574.50" from="-E2" to="E3"/>
    <trip id="car_384" depart="576.00" from="-E3" to="E2"/>
    <trip id="car_385" depart="577.50" from="-E1" to="E6"/>
    <trip id="car_386" depart="579.00" from="-E2" to="E3"/>
    <trip id="car_387" depart="580.50" from="-E3" to="E4"/>
    <trip id="car_388" depart="582.00" from="E0" to="E3"/>
    <trip id="car_389" depart="583.50" from="-E3" to="E6"/>
    <trip id="car_390" depart="585.00" from="-E2" to="E3"/>
    <trip id="car_391" depart="586.50" from="-E4" to="E1"/>
    <trip id="car_392" depart="588.00" from="-E6" to="E4"/>
    <trip id="car_393" depart="589.50" from="W_P0P1_Upstream_E_P0P2_Downstream" to="E2"/>
    <trip id="car_394" depart="591.00" from="-E3" to="E4"/>
    <trip id="car_395" depart="592.50" from="E0" to="E6"/>
    <trip id="car_396" depart="594.00" from="-E1" to="E4"/>
    <trip id="car_397" depart="595.50" from="-E6" to="N_P1_Upstream"/>
    <trip id="car_398" depart="597.00" from="-E3" to="E6"/>
    <trip id="car_399" depart="598.50" from="-E6" to="E2"/>
    <trip id="car_400" depart="600.00" from="E0" to="E5"/>
    <trip id="car_401" depart="601.50" from="E0" to="E5"/>
    <trip id="car_402" depart="603.00" from="E0" to="E6"/>
    <trip id="car_403" depart="604.50" from="E0" to="N_P1_Upstream"/>
    <trip id="car_404" depart="606.00" from="E0" to="E2"/>
    <trip id="car_405" depart="607.50" from="-E3" to="E6"/>
    <trip id="car_406" depart="609.00" from="-E2" to="E1"/>
    <trip id="car_407" depart="610.50" from="-E6" to="N_P1_Upstream"/>
    <trip id="car_408" depart="612.00" from="-E6" to="N_P1_Upstream"/>
    <trip id="car_409" depart="613.50" from="N_P2_Upstream" to="E2"/>
    <trip id="car_410" depart="615.00" from="N_P2_Upstream" to="E3"/>
    <trip id="car_411" depart="616.50" from="N_P2_Upstream" to="E6"/>
    <trip id="car_412" depart="618.00" from="-E3" to="-E0"/>
    <trip id="car_413" depart="619.50" from="S_P2_UPSTREAM" to="E1"/>
    <trip id="car_414" depart="621.00" from="S_P2_UPSTREAM" to="E6"/>
    <trip id="car_415" depart="622.50" from="E0" to="N_P1_Upstream"/>
    <trip id="car_416" depart="624.00" from="S_P2_UPSTREAM" to="E6"/>
    <trip id="car_417" depart="625.50" from="-E3" to="E6"/>
    <trip id="car_418" depart="627.00" from="-E1" to="E4"/>
    <trip id="car_419" depart="628.50" from="-E4" to="E5"/>
    <trip id="car_420" depart="630.00" from="E0" to="E4"/>
    <trip id="car_421" depart="631.50" from="-E1" to="N_P1_Upstream"/>
    <trip id="car_422" depart="633.00" from="-E6" to="N_P1_Upstream"/>
    <trip id="car_423" depart="634.50" from="-E2" to="-E0"/>
    <trip id="car_424" depart="636.00" from="-E2" to="N_P1_Upstream"/>
    <trip id="car_425" depart="637.50" from="-E3" to="E4"/>
    <trip id="car_426" depart="639.00" from="-E1" to="N_P1_Upstream"/>
    <trip id="car_427" depart="640.50" from="-E2" to="E3"/>
    <trip id="car_428" depart="642.00" from="E0" to="E6"/>
    <trip id="car_429" depart="643.50" from="S_P2_UPSTREAM" to="E3"/>
    <trip id="car_430" depart="645.00" from="E_P0_Upstream" to="E1"/>
    <trip id="car_431" depart="646.50" from="-E4" to="-E0"/>
    <trip id="car_432" depart="648.00" from="-E4" to="E3"/>
    <trip id="car_433" depart="649.50" from="S_P2_UPSTREAM" to="-E0"/>
    <trip id="car_434" depart="651.00" from="-E4" to="E3"/>
    <trip id="car_435" depart="652.50" from="S_P2_UPSTREAM" to="E6"/>
    <trip id="car_436" depart="654.00" from="-E1" to="E5"/>
    <trip id="car_437" depart="655.50" from="-E6" to="N_P1_Upstream"/>
    <trip id="car_438" depart="657.00" from="-E2" to="-E0"/>
    <trip id="car_439" depart="658.50" from="N_P2_Upstream" to="E3"/>
    <trip id="car_440" depart="660.00" from="E0" to="E5"/>
    <trip id="car_441" depart="661.50" from="-E6" to="-E0"/>
    <trip id="car_442" depart="663.00" from="N_P2_Upstream" to="E1"/>
    <trip id="car_443" depart="664.50" from="-E2" to="E4"/>
    <trip id="car_444" depart="666.00" from="-E1" to="E6"/>
    <trip id="car_445" depart="667.50" from="-E2" to="E1"/>
    <trip id="car_446" depart="669.00" from="S_P2_UPSTREAM" to="E2"/>
    <trip id="car_447" depart="670.50" from="-E2" to="N_P1_Upstream"/>
    <trip id="car_448" depart="672.00" from="-E1" to="E6"/>
    <trip id="car_449" depart="673.50" from="-E2" to="E1"/>
    <trip id="car_450" depart="675.00" from="-E3" to="E1"/>
    <trip id="car_451" depart="676.50" from="-E1" to="E6"/>
    <trip id="car_452" depart="678.00" from="-E2" to="-E0"/>
    <trip id="car_453" depart="679.50" from="N_P2_Upstream" to="E3"/>
    <trip id="car_454" depart="681.00" from="N_P2_Upstream" to="E4"/>
    <trip id="car_455" depart="682.50" from="-E1" to="E4"/>
    <trip id="car_456" depart="684.00" from="S_P2_UPSTREAM" to="-E0"/>